MODEL 1
REMARK VINA RESULT:    -5.919      0.000      0.000
REMARK INTER + INTRA:          -9.046
REMARK INTER:                  -7.995
REMARK INTRA:                  -1.052
REMARK UNBOUND:                -1.052
REMARK  Name = /tmp/tmp18osg28y/anlotinib.pdb
REMARK  6 active torsions:
REMARK  status: ('A' for Active; 'I' for Inactive)
REMARK    1  A    between atoms: C8_9  and  O1_12
REMARK    2  A    between atoms: O1_12  and  C10_13
REMARK    3  A    between atoms: C13_16  and  O3_29
REMARK    4  A    between atoms: C14_17  and  O2_23
REMARK    5  A    between atoms: O2_23  and  C19_24
REMARK    6  A    between atoms: C19_24  and  C20_25
REMARK                            x       y       z     vdW  Elec       q    Type
REMARK                         _______ _______ _______ _____ _____    ______ ____
ROOT
ATOM      1  C10 UNL     1      10.740 -11.163   2.581  0.00  0.00    +0.148 A 
ATOM      2  C11 UNL     1      10.735 -12.611   2.189  0.00  0.00    +0.055 A 
ATOM      3  C12 UNL     1      12.002 -13.266   1.725  0.00  0.00    +0.045 A 
ATOM      4  C13 UNL     1      11.997 -14.714   1.333  0.00  0.00    +0.173 A 
ATOM      5  C14 UNL     1      10.725 -15.506   1.406  0.00  0.00    +0.174 A 
ATOM      6  C15 UNL     1       9.459 -14.851   1.870  0.00  0.00    +0.059 A 
ATOM      7  C16 UNL     1       9.464 -13.403   2.262  0.00  0.00    +0.087 A 
ATOM      8  N2  UNL     1       8.197 -12.747   2.726  0.00  0.00    -0.244 NA
ATOM      9  C17 UNL     1       8.202 -11.299   3.118  0.00  0.00    +0.102 A 
ATOM     10  C18 UNL     1       9.474 -10.507   3.045  0.00  0.00    +0.058 A 
ENDROOT
BRANCH   4  11
ATOM     11  O3  UNL     1      13.264 -15.370   0.869  0.00  0.00    -0.468 OA
ATOM     12  C23 UNL     1      14.213 -15.960   1.870  0.00  0.00    +0.253 C 
ENDBRANCH   4  11
BRANCH   1  13
ATOM     13  O1  UNL     1      12.012 -10.371   2.509  0.00  0.00    -0.451 OA
BRANCH  13  22
ATOM     14  C1  UNL     1      14.594  -7.011   9.118  0.00  0.00    +0.052 C 
ATOM     15  C2  UNL     1      14.010  -7.388   7.788  0.00  0.00    +0.059 A 
ATOM     16  C3  UNL     1      14.004  -8.762   7.185  0.00  0.00    +0.019 A 
ATOM     17  C4  UNL     1      13.320  -8.680   5.853  0.00  0.00    +0.049 A 
ATOM     18  C5  UNL     1      12.904  -7.256   5.632  0.00  0.00    +0.083 A 
ATOM     19  N1  UNL     1      13.330  -6.458   6.829  0.00  0.00    -0.250 NA
ATOM     20  C6  UNL     1      12.190  -6.870   4.371  0.00  0.00    +0.022 A 
ATOM     21  C7  UNL     1      11.893  -7.908   3.330  0.00  0.00    +0.041 A 
ATOM     22  C8  UNL     1      12.309  -9.332   3.550  0.00  0.00    +0.173 A 
ATOM     23  C9  UNL     1      13.023  -9.718   4.812  0.00  0.00    +0.176 A 
ATOM     24  F1  UNL     1      13.440 -11.142   5.032  0.00  0.00    -0.201 F 
ENDBRANCH  13  22
ENDBRANCH   1  13
BRANCH   5  25
ATOM     25  O2  UNL     1      10.720 -16.954   1.014  0.00  0.00    -0.471 OA
BRANCH  25  26
ATOM     26  C19 UNL     1       9.738 -17.452  -0.005  0.00  0.00    +0.223 C 
BRANCH  26  27
ATOM     27  C20 UNL     1       9.641 -16.781  -1.343  0.00  0.00    +0.117 C 
ATOM     28  C21 UNL     1       9.051 -16.058  -2.517  0.00  0.00    +0.023 C 
ATOM     29  C22 UNL     1       8.190 -16.397  -1.337  0.00  0.00    +0.023 C 
ATOM     30  N3  UNL     1      11.057 -16.931  -1.813  0.00  0.00    -0.131 NA
ENDBRANCH  26  27
ENDBRANCH  25  26
ENDBRANCH   5  25
TORSDOF 6
ENDMDL
