MODEL 1
REMARK VINA RESULT:    -5.636      0.000      0.000
REMARK INTER + INTRA:          -6.906
REMARK INTER:                  -6.295
REMARK INTRA:                  -0.611
REMARK UNBOUND:                -0.611
REMARK  Name = /tmp/tmp6pbmhpsl/ARS-1620.pdb
REMARK  2 active torsions:
REMARK  status: ('A' for Active; 'I' for Inactive)
REMARK    1  A    between atoms: C2_2  and  C3_3
REMARK    2  A    between atoms: C12_17  and  C16_22
REMARK                            x       y       z     vdW  Elec       q    Type
REMARK                         _______ _______ _______ _____ _____    ______ ____
ROOT
ATOM      1  C3  UNL     1      13.310 -19.311  -1.877  0.00  0.00    +0.257 C 
ATOM      2  O1  UNL     1      12.848 -20.604  -2.482  0.00  0.00    -0.269 OA
ATOM      3  N1  UNL     1      12.330 -18.421  -1.172  0.00  0.00    -0.229 N 
ATOM      4  C4  UNL     1      12.791 -17.128  -0.567  0.00  0.00    +0.089 C 
ATOM      5  C5  UNL     1      11.811 -16.238   0.138  0.00  0.00    +0.087 C 
ATOM      6  N2  UNL     1      10.369 -16.640   0.237  0.00  0.00    -0.246 N 
ATOM      7  C6  UNL     1       9.908 -17.933  -0.368  0.00  0.00    +0.087 C 
ATOM      8  C7  UNL     1      10.888 -18.823  -1.072  0.00  0.00    +0.089 C 
ATOM      9  C8  UNL     1       9.389 -15.750   0.942  0.00  0.00    +0.143 A 
ATOM     10  N3  UNL     1       7.948 -16.152   1.042  0.00  0.00    -0.208 NA
ATOM     11  C9  UNL     1       6.968 -15.262   1.747  0.00  0.00    +0.200 A 
ATOM     12  N4  UNL     1       7.429 -13.969   2.352  0.00  0.00    -0.222 NA
ATOM     13  C10 UNL     1       8.871 -13.567   2.252  0.00  0.00    +0.113 A 
ATOM     14  C11 UNL     1       9.332 -12.275   2.857  0.00  0.00    +0.159 A 
ATOM     15  C12 UNL     1      10.774 -11.872   2.758  0.00  0.00    +0.045 A 
ATOM     16  C13 UNL     1      11.754 -12.763   2.053  0.00  0.00    +0.060 A 
ATOM     17  C14 UNL     1      11.292 -14.055   1.448  0.00  0.00    +0.016 A 
ATOM     18  C15 UNL     1       9.851 -14.457   1.547  0.00  0.00    +0.053 A 
ATOM     19 CL1  UNL     1      13.196 -12.360   1.953  0.00  0.00    -0.082 Cl
ATOM     20  F2  UNL     1       8.352 -11.384   3.562  0.00  0.00    -0.203 F 
ENDROOT
BRANCH  15  21
ATOM     21  C16 UNL     1      11.236 -10.580   3.363  0.00  0.00    +0.069 A 
ATOM     22  C17 UNL     1      11.942 -10.581   4.686  0.00  0.00    +0.198 A 
ATOM     23  C18 UNL     1      12.403  -9.288   5.291  0.00  0.00    +0.042 A 
ATOM     24  C19 UNL     1      12.159  -7.994   4.573  0.00  0.00    +0.006 A 
ATOM     25  C20 UNL     1      11.452  -7.993   3.250  0.00  0.00    +0.030 A 
ATOM     26  C21 UNL     1      10.991  -9.286   2.645  0.00  0.00    +0.143 A 
ATOM     27  F1  UNL     1      10.285  -9.284   1.321  0.00  0.00    -0.204 F 
ATOM     28  O2  UNL     1      12.186 -11.875   5.404  0.00  0.00    -0.286 OA
ENDBRANCH  15  21
BRANCH   1  30
ATOM     29  C1  UNL     1      15.221 -18.084  -3.138  0.00  0.00    +0.005 C 
ATOM     30  C2  UNL     1      14.751 -18.909  -1.977  0.00  0.00    +0.059 C 
ENDBRANCH   1  30
TORSDOF 2
ENDMDL
