MODEL 1
REMARK VINA RESULT:    -5.720      0.000      0.000
REMARK INTER + INTRA:          -8.740
REMARK INTER:                  -8.061
REMARK INTRA:                  -0.679
REMARK UNBOUND:                -0.679
REMARK  Name = /tmp/tmp93udtdky/KG_TEMP_ID_13.pdb
REMARK  7 active torsions:
REMARK  status: ('A' for Active; 'I' for Inactive)
REMARK    1  A    between atoms: C5_6  and  C6_7
REMARK    2  A    between atoms: C6_7  and  O1_8
REMARK    3  A    between atoms: O1_8  and  C7_9
REMARK    4  A    between atoms: N3_15  and  C13_17
REMARK    5  A    between atoms: C26_34  and  C28_36
REMARK    6  A    between atoms: C28_36  and  C29_37
REMARK    7  A    between atoms: C30_39  and  C31_41
REMARK                            x       y       z     vdW  Elec       q    Type
REMARK                         _______ _______ _______ _____ _____    ______ ____
ROOT
ATOM      1  C7  UNL     1       8.430 -12.667   2.859  0.00  0.00    +0.321 A 
ATOM      2  N2  UNL     1       7.871 -13.302   1.621  0.00  0.00    -0.197 NA
ATOM      3  C8  UNL     1       8.112 -14.757   1.350  0.00  0.00    +0.087 A 
ATOM      4  C9  UNL     1       8.911 -15.578   2.319  0.00  0.00    +0.049 A 
ATOM      5  C10 UNL     1       9.152 -17.034   2.048  0.00  0.00    +0.020 C 
ATOM      6  C11 UNL     1       8.593 -17.669   0.809  0.00  0.00    +0.066 C 
ATOM      7  N3  UNL     1       7.794 -16.848  -0.159  0.00  0.00    -0.280 N 
ATOM      8  C12 UNL     1       7.553 -15.392   0.112  0.00  0.00    +0.141 C 
ATOM      9  C23 UNL     1       9.470 -14.943   3.557  0.00  0.00    +0.145 A 
ATOM     10  N4  UNL     1       9.229 -13.487   3.828  0.00  0.00    -0.179 NA
ATOM     11  N5  UNL     1      10.270 -15.763   4.525  0.00  0.00    -0.246 N 
ATOM     12  C24 UNL     1      10.828 -15.128   5.764  0.00  0.00    +0.087 C 
ATOM     13  C25 UNL     1      11.628 -15.949   6.732  0.00  0.00    +0.089 C 
ATOM     14  N6  UNL     1      11.869 -17.404   6.462  0.00  0.00    -0.231 N 
ATOM     15  C26 UNL     1      11.310 -18.040   5.223  0.00  0.00    +0.066 C 
ATOM     16  C27 UNL     1      10.510 -17.219   4.255  0.00  0.00    +0.083 C 
ATOM     17  C30 UNL     1      12.668 -18.225   7.430  0.00  0.00    +0.284 C 
ATOM     18  O2  UNL     1      12.909 -19.681   7.160  0.00  0.00    -0.267 OA
ENDROOT
BRANCH   7  19
ATOM     19  C13 UNL     1       7.235 -17.483  -1.398  0.00  0.00    +0.053 A 
ATOM     20  C14 UNL     1       5.830 -18.008  -1.403  0.00  0.00    +0.015 A 
ATOM     21  C15 UNL     1       5.271 -18.643  -2.641  0.00  0.00    +0.001 A 
ATOM     22  C16 UNL     1       6.117 -18.753  -3.875  0.00  0.00    +0.000 A 
ATOM     23  C17 UNL     1       7.523 -18.228  -3.870  0.00  0.00    +0.002 A 
ATOM     24  C18 UNL     1       8.081 -17.593  -2.631  0.00  0.00    +0.024 A 
ATOM     25  C19 UNL     1       9.487 -17.069  -2.626  0.00  0.00    +0.059 A 
ATOM     26  C20 UNL     1      10.333 -17.179  -3.859  0.00  0.00    +0.011 A 
ATOM     27  C21 UNL     1       9.774 -17.814  -5.098  0.00  0.00    +0.001 A 
ATOM     28  C22 UNL     1       8.369 -18.339  -5.103  0.00  0.00    +0.000 A 
ATOM     29 CL1  UNL     1      10.045 -16.434  -1.387  0.00  0.00    -0.082 Cl
ENDBRANCH   7  19
BRANCH  17  30
ATOM     30  C31 UNL     1      13.227 -17.590   8.669  0.00  0.00    +0.194 C 
ATOM     31  C32 UNL     1      14.698 -17.315   8.773  0.00  0.00    +0.037 C 
ATOM     32  F1  UNL     1      12.315 -17.230   9.804  0.00  0.00    -0.199 F 
ENDBRANCH  17  30
BRANCH   1  33
ATOM     33  O1  UNL     1       8.189 -11.211   3.130  0.00  0.00    -0.440 OA
BRANCH  33  34
ATOM     34  C6  UNL     1       9.219 -10.195   2.736  0.00  0.00    +0.252 C 
BRANCH  34  40
ATOM     35  C1  UNL     1      12.074 -11.706   2.275  0.00  0.00    +0.130 C 
ATOM     36  N1  UNL     1      11.768 -10.712   3.356  0.00  0.00    -0.324 N 
ATOM     37  C2  UNL     1      12.719 -10.238   4.414  0.00  0.00    +0.076 A 
ATOM     38  C3  UNL     1      11.994  -9.251   5.280  0.00  0.00    +0.020 A 
ATOM     39  C4  UNL     1      10.595  -9.114   4.756  0.00  0.00    +0.018 A 
ATOM     40  C5  UNL     1      10.455 -10.017   3.567  0.00  0.00    +0.081 A 
ENDBRANCH  34  40
ENDBRANCH  33  34
ENDBRANCH   1  33
BRANCH  15  41
ATOM     41  C28 UNL     1      11.551 -19.495   4.953  0.00  0.00    +0.148 C 
BRANCH  41  42
ATOM     42  C29 UNL     1      10.890 -20.160   3.781  0.00  0.00    +0.079 C 
ATOM     43  N7  UNL     1      10.230 -20.824   2.610  0.00  0.00    -0.195 NA
ENDBRANCH  41  42
ENDBRANCH  15  41
TORSDOF 7
ENDMDL
