MODEL 1
REMARK VINA RESULT:    -5.260      0.000      0.000
REMARK INTER + INTRA:          -7.560
REMARK INTER:                  -6.798
REMARK INTRA:                  -0.762
REMARK UNBOUND:                -0.762
REMARK  Name = /tmp/tmpmfg2grlq/omeprazole.pdb
REMARK  5 active torsions:
REMARK  status: ('A' for Active; 'I' for Inactive)
REMARK    1  A    between atoms: C4_5  and  C9_11
REMARK    2  A    between atoms: C6_7  and  O1_8
REMARK    3  A    between atoms: C9_11  and  S1_12
REMARK    4  A    between atoms: S1_12  and  C10_14
REMARK    5  A    between atoms: C14_20  and  O3_23
REMARK                            x       y       z     vdW  Elec       q    Type
REMARK                         _______ _______ _______ _____ _____    ______ ____
ROOT
ATOM      1  S1  UNL     1       7.814 -15.043   4.279  0.00  0.00    +0.107 S 
ATOM      2  O2  UNL     1       6.924 -15.043   5.486  0.00  0.00    -0.248 OA
ENDROOT
BRANCH   1   3
ATOM      3  C10 UNL     1       8.598 -13.815   3.925  0.00  0.00    +0.221 A 
ATOM      4  N2  UNL     1       8.099 -12.655   3.115  0.00  0.00    -0.218 NA
ATOM      5  C11 UNL     1       9.211 -11.653   3.008  0.00  0.00    +0.101 A 
ATOM      6  C12 UNL     1      10.397 -12.195   3.750  0.00  0.00    +0.104 A 
ATOM      7  N3  UNL     1      10.018 -13.531   4.317  0.00  0.00    -0.218 NA
ATOM      8  C13 UNL     1      11.668 -11.402   3.815  0.00  0.00    +0.058 A 
ATOM      9  C14 UNL     1      11.754 -10.067   3.136  0.00  0.00    +0.140 A 
ATOM     10  C15 UNL     1      10.569  -9.525   2.393  0.00  0.00    +0.039 A 
ATOM     11  C16 UNL     1       9.298 -10.318   2.329  0.00  0.00    +0.024 A 
BRANCH   9  12
ATOM     12  O3  UNL     1      13.026  -9.274   3.200  0.00  0.00    -0.471 OA
ATOM     13  C17 UNL     1      13.088  -8.021   4.023  0.00  0.00    +0.252 C 
ENDBRANCH   9  12
ENDBRANCH   1   3
BRANCH   1  14
ATOM     14  C9  UNL     1       7.920 -16.273   3.427  0.00  0.00    +0.145 C 
BRANCH  14  19
ATOM     15  C1  UNL     1       8.824 -15.757  -2.482  0.00  0.00    +0.036 C 
ATOM     16  C2  UNL     1       8.598 -15.886  -1.005  0.00  0.00    +0.031 A 
ATOM     17  C3  UNL     1       7.236 -15.632  -0.430  0.00  0.00    +0.097 A 
ATOM     18  N1  UNL     1       7.010 -15.761   1.048  0.00  0.00    -0.248 NA
ATOM     19  C4  UNL     1       8.146 -16.144   1.949  0.00  0.00    +0.072 A 
ATOM     20  C5  UNL     1       9.508 -16.398   1.374  0.00  0.00    +0.026 A 
ATOM     21  C6  UNL     1       9.734 -16.269  -0.103  0.00  0.00    +0.133 A 
ATOM     22  C8  UNL     1      10.644 -16.781   2.276  0.00  0.00    +0.035 C 
BRANCH  21  23
ATOM     23  O1  UNL     1      11.095 -16.523  -0.679  0.00  0.00    -0.472 OA
ATOM     24  C7  UNL     1      11.474 -17.903  -1.129  0.00  0.00    +0.252 C 
ENDBRANCH  21  23
ENDBRANCH  14  19
ENDBRANCH   1  14
TORSDOF 5
ENDMDL
