MODEL 1
REMARK VINA RESULT:    -5.693      0.000      0.000
REMARK INTER + INTRA:          -8.714
REMARK INTER:                  -8.022
REMARK INTRA:                  -0.692
REMARK UNBOUND:                -0.692
REMARK  Name = /tmp/tmp8jmoghn4/KG_TEMP_ID_10.pdb
REMARK  7 active torsions:
REMARK  status: ('A' for Active; 'I' for Inactive)
REMARK    1  A    between atoms: C5_6  and  C6_7
REMARK    2  A    between atoms: C6_7  and  O1_8
REMARK    3  A    between atoms: O1_8  and  C7_9
REMARK    4  A    between atoms: N3_15  and  C13_17
REMARK    5  A    between atoms: C26_34  and  C28_36
REMARK    6  A    between atoms: C28_36  and  C29_37
REMARK    7  A    between atoms: C30_39  and  C31_41
REMARK                            x       y       z     vdW  Elec       q    Type
REMARK                         _______ _______ _______ _____ _____    ______ ____
ROOT
ATOM      1  C7  UNL     1       8.428 -12.671   2.853  0.00  0.00    +0.321 A 
ATOM      2  N2  UNL     1       7.884 -13.301   1.605  0.00  0.00    -0.197 NA
ATOM      3  C8  UNL     1       8.122 -14.757   1.335  0.00  0.00    +0.087 A 
ATOM      4  C9  UNL     1       8.905 -15.583   2.313  0.00  0.00    +0.049 A 
ATOM      5  C10 UNL     1       9.144 -17.039   2.043  0.00  0.00    +0.020 C 
ATOM      6  C11 UNL     1       8.600 -17.670   0.795  0.00  0.00    +0.066 C 
ATOM      7  N3  UNL     1       7.817 -16.844  -0.182  0.00  0.00    -0.280 N 
ATOM      8  C12 UNL     1       7.578 -15.388   0.088  0.00  0.00    +0.141 C 
ATOM      9  C23 UNL     1       9.449 -14.953   3.561  0.00  0.00    +0.145 A 
ATOM     10  N4  UNL     1       9.210 -13.497   3.831  0.00  0.00    -0.179 NA
ATOM     11  N5  UNL     1      10.232 -15.778   4.538  0.00  0.00    -0.246 N 
ATOM     12  C24 UNL     1      10.775 -15.148   5.786  0.00  0.00    +0.087 C 
ATOM     13  C25 UNL     1      11.558 -15.974   6.764  0.00  0.00    +0.089 C 
ATOM     14  N6  UNL     1      11.797 -17.430   6.494  0.00  0.00    -0.231 N 
ATOM     15  C26 UNL     1      11.253 -18.060   5.246  0.00  0.00    +0.066 C 
ATOM     16  C27 UNL     1      10.470 -17.234   4.268  0.00  0.00    +0.083 C 
ATOM     17  C30 UNL     1      12.579 -18.255   7.471  0.00  0.00    +0.284 C 
ATOM     18  O2  UNL     1      12.818 -19.711   7.201  0.00  0.00    -0.267 OA
ENDROOT
BRANCH   7  19
ATOM     19  C13 UNL     1       7.273 -17.474  -1.430  0.00  0.00    +0.053 A 
ATOM     20  C14 UNL     1       5.871 -18.008  -1.451  0.00  0.00    +0.015 A 
ATOM     21  C15 UNL     1       5.328 -18.638  -2.699  0.00  0.00    +0.001 A 
ATOM     22  C16 UNL     1       6.185 -18.735  -3.925  0.00  0.00    +0.000 A 
ATOM     23  C17 UNL     1       7.587 -18.202  -3.904  0.00  0.00    +0.002 A 
ATOM     24  C18 UNL     1       8.131 -17.571  -2.657  0.00  0.00    +0.024 A 
ATOM     25  C19 UNL     1       9.533 -17.038  -2.636  0.00  0.00    +0.059 A 
ATOM     26  C20 UNL     1      10.391 -17.135  -3.862  0.00  0.00    +0.011 A 
ATOM     27  C21 UNL     1       9.847 -17.765  -5.110  0.00  0.00    +0.001 A 
ATOM     28  C22 UNL     1       8.445 -18.298  -5.131  0.00  0.00    +0.000 A 
ATOM     29 CL1  UNL     1      10.077 -16.407  -1.388  0.00  0.00    -0.082 Cl
ENDBRANCH   7  19
BRANCH  17  30
ATOM     30  C31 UNL     1      13.123 -17.625   8.719  0.00  0.00    +0.194 C 
ATOM     31  C32 UNL     1      12.455 -17.875  10.038  0.00  0.00    +0.037 C 
ATOM     32  F1  UNL     1      14.336 -16.745   8.647  0.00  0.00    -0.199 F 
ENDBRANCH  17  30
BRANCH   1  33
ATOM     33  O1  UNL     1       8.189 -11.215   3.123  0.00  0.00    -0.440 OA
BRANCH  33  34
ATOM     34  C6  UNL     1       9.231 -10.202   2.750  0.00  0.00    +0.252 C 
BRANCH  34  40
ATOM     35  C1  UNL     1      12.105 -11.700   2.370  0.00  0.00    +0.130 C 
ATOM     36  N1  UNL     1      11.763 -10.707   3.441  0.00  0.00    -0.324 N 
ATOM     37  C2  UNL     1      12.683 -10.229   4.525  0.00  0.00    +0.076 A 
ATOM     38  C3  UNL     1      11.930  -9.244   5.370  0.00  0.00    +0.020 A 
ATOM     39  C4  UNL     1      10.545  -9.115   4.808  0.00  0.00    +0.018 A 
ATOM     40  C5  UNL     1      10.442 -10.019   3.616  0.00  0.00    +0.081 A 
ENDBRANCH  34  40
ENDBRANCH  33  34
ENDBRANCH   1  33
BRANCH  15  41
ATOM     41  C28 UNL     1      11.492 -19.516   4.976  0.00  0.00    +0.148 C 
BRANCH  41  42
ATOM     42  C29 UNL     1      10.909 -20.157   3.751  0.00  0.00    +0.079 C 
ATOM     43  N7  UNL     1      10.326 -20.798   2.527  0.00  0.00    -0.195 NA
ENDBRANCH  41  42
ENDBRANCH  15  41
TORSDOF 7
ENDMDL
