MODEL 1
REMARK VINA RESULT:    -4.636      0.000      0.000
REMARK INTER + INTRA:          -4.673
REMARK INTER:                  -6.533
REMARK INTRA:                   1.860
REMARK UNBOUND:                 1.860
REMARK  Name = /tmp/tmpkbbr00bq/KG_TEMP_ID_8.pdb
REMARK  7 active torsions:
REMARK  status: ('A' for Active; 'I' for Inactive)
REMARK    1  A    between atoms: C7_7  and  O14_67
REMARK    2  A    between atoms: C18_19  and  O13_62
REMARK    3  A    between atoms: C25_27  and  C35_44
REMARK    4  A    between atoms: C37_46  and  C38_47
REMARK    5  A    between atoms: C41_50  and  O10_55
REMARK    6  A    between atoms: C42_51  and  O9_53
REMARK    7  A    between atoms: O10_55  and  C45_56
REMARK                            x       y       z     vdW  Elec       q    Type
REMARK                         _______ _______ _______ _____ _____    ______ ____
ROOT
ATOM      1  C1  UNL     1      -1.998 -22.387   4.070  0.00  0.00    +0.012 C 
ATOM      2  C2  UNL     1      -1.329 -22.328   2.728  0.00  0.00    +0.096 C 
ATOM      3  C3  UNL     1      -2.028 -22.873   1.517  0.00  0.00    -0.016 C 
ATOM      4  C4  UNL     1      -1.359 -22.814   0.176  0.00  0.00    +0.041 C 
ATOM      5  C5  UNL     1       0.004 -22.282  -0.333  0.00  0.00    +0.179 C 
ATOM      6  C6  UNL     1       0.424 -22.355  -1.770  0.00  0.00    -0.029 C 
ATOM      7  C7  UNL     1       1.113 -22.285  -3.101  0.00  0.00    +0.173 C 
ATOM      8  C8  UNL     1       2.041 -22.073  -4.260  0.00  0.00    +0.020 C 
ATOM      9  C9  UNL     1       3.304 -21.616  -4.928  0.00  0.00    -0.001 C 
ATOM     10  C10 UNL     1       4.426 -21.273  -5.863  0.00  0.00    -0.000 C 
ATOM     11  C11 UNL     1       5.791 -20.655  -5.914  0.00  0.00    +0.000 C 
ATOM     12  C12 UNL     1       7.137 -20.105  -6.282  0.00  0.00    +0.000 C 
ATOM     13  C13 UNL     1       8.353 -19.439  -5.707  0.00  0.00    +0.003 C 
ATOM     14  C14 UNL     1       9.675 -18.782  -5.439  0.00  0.00    +0.012 C 
ATOM     15  C15 UNL     1      10.727 -18.141  -4.585  0.00  0.00    -0.107 C 
ATOM     16  C16 UNL     1      11.569 -17.551  -3.491  0.00  0.00    +0.054 C 
ATOM     17  C17 UNL     1      12.158 -17.043  -2.209  0.00  0.00    +0.235 C 
ATOM     18  O1  UNL     1      13.448 -16.560  -2.804  0.00  0.00    -0.283 OA
ATOM     19  C18 UNL     1      12.468 -16.639  -0.798  0.00  0.00    +0.211 C 
ATOM     20  C19 UNL     1      12.486 -16.359   0.675  0.00  0.00    +0.175 C 
ATOM     21  C20 UNL     1      12.209 -16.214   2.142  0.00  0.00    +0.055 C 
ATOM     22  C21 UNL     1      11.395 -16.356   3.395  0.00  0.00    -0.008 C 
ATOM     23  C22 UNL     1      10.837 -16.356   4.786  0.00  0.00    +0.118 C 
ATOM     24  C23 UNL     1       9.807 -16.634   5.840  0.00  0.00    +0.087 C 
ATOM     25  O2  UNL     1      10.588 -16.063   6.987  0.00  0.00    -0.238 OA
ATOM     26  C24 UNL     1       8.607 -17.036   6.647  0.00  0.00    +0.005 C 
ATOM     27  C25 UNL     1       7.294 -17.543   7.167  0.00  0.00    +0.188 C 
ATOM     28  O3  UNL     1       5.930 -18.131   7.377  0.00  0.00    -0.415 OA
ATOM     29  C26 UNL     1       4.579 -18.772   7.269  0.00  0.00    +0.345 C 
ATOM     30  O4  UNL     1       4.230 -18.663   8.723  0.00  0.00    -0.247 OA
ATOM     31  C27 UNL     1       3.303 -19.437   6.845  0.00  0.00    +0.202 C 
ATOM     32  C28 UNL     1       3.222 -19.201   8.324  0.00  0.00    +0.005 C 
ATOM     33  C29 UNL     1       1.999 -19.622   9.084  0.00  0.00    -0.001 C 
ATOM     34  C30 UNL     1       0.858 -20.279   8.366  0.00  0.00    +0.016 C 
ATOM     35  C31 UNL     1       0.940 -20.516   6.887  0.00  0.00    +0.069 C 
ATOM     36  N1  UNL     1       2.162 -20.095   6.126  0.00  0.00    -0.239 N 
ATOM     37  C32 UNL     1       1.209 -20.714   5.147  0.00  0.00    +0.294 C 
ATOM     38  O5  UNL     1       0.132 -21.025   6.142  0.00  0.00    -0.266 OA
ATOM     39  C33 UNL     1       0.490 -21.265   3.952  0.00  0.00    +0.292 C 
ATOM     40  O6  UNL     1      -0.743 -21.696   4.689  0.00  0.00    -0.280 OA
ATOM     41  C34 UNL     1       0.038 -21.724   2.597  0.00  0.00    +0.321 C 
ATOM     42  O7  UNL     1      -0.128 -22.069   1.147  0.00  0.00    -0.442 OA
ATOM     43  O8  UNL     1      -0.689 -22.049   2.645  0.00  0.00    -0.172 OA
ATOM     44  C47 UNL     1      12.017 -15.693   5.434  0.00  0.00    +0.021 C 
ATOM     45  C48 UNL     1      13.509 -15.553   2.489  0.00  0.00    +0.235 C 
ATOM     46  O12 UNL     1      13.846 -15.728   0.704  0.00  0.00    -0.468 OA
ATOM     47  C50 UNL     1      12.730 -17.179  -4.363  0.00  0.00    +0.043 C 
ATOM     48  C51 UNL     1      10.164 -18.820  -6.857  0.00  0.00    +0.039 C 
ATOM     49  C52 UNL     1       1.143 -22.678  -5.298  0.00  0.00    +0.035 C 
ENDROOT
BRANCH  27  50
ATOM     50  C35 UNL     1       7.533 -17.168   8.600  0.00  0.00    +0.021 C 
ATOM     51  C36 UNL     1       8.633 -17.830   9.375  0.00  0.00    +0.035 C 
ATOM     52  C37 UNL     1       6.671 -16.132   9.257  0.00  0.00    -0.000 C 
BRANCH  52  53
ATOM     53  C38 UNL     1       6.908 -15.757  10.689  0.00  0.00    +0.003 A 
ATOM     54  C39 UNL     1       7.542 -14.438  11.024  0.00  0.00    +0.003 A 
ATOM     55  C40 UNL     1       7.780 -14.062  12.457  0.00  0.00    +0.041 A 
ATOM     56  C41 UNL     1       7.384 -15.006  13.555  0.00  0.00    +0.179 A 
ATOM     57  C42 UNL     1       6.751 -16.324  13.220  0.00  0.00    +0.173 A 
ATOM     58  C43 UNL     1       6.513 -16.699  11.788  0.00  0.00    +0.040 A 
BRANCH  57  59
ATOM     59  O9  UNL     1       6.356 -17.266  14.318  0.00  0.00    -0.468 OA
ATOM     60  C44 UNL     1       5.019 -17.943  14.279  0.00  0.00    +0.253 C 
ENDBRANCH  57  59
BRANCH  56  61
ATOM     61  O10 UNL     1       7.623 -14.630  14.987  0.00  0.00    -0.444 OA
BRANCH  61  62
ATOM     62  C45 UNL     1       9.021 -14.397  15.480  0.00  0.00    +0.225 C 
ATOM     63  C46 UNL     1      10.179 -15.042  14.778  0.00  0.00    +0.275 C 
ATOM     64  O11 UNL     1      11.577 -14.809  15.270  0.00  0.00    -0.280 OA
ENDBRANCH  61  62
ENDBRANCH  56  61
ENDBRANCH  52  53
ENDBRANCH  27  50
BRANCH  19  65
ATOM     65  O13 UNL     1      13.825 -16.069  -1.088  0.00  0.00    -0.465 OA
ATOM     66  C49 UNL     1      15.051 -16.910  -0.884  0.00  0.00    +0.253 C 
ENDBRANCH  19  65
BRANCH   7  67
ATOM     67  O14 UNL     1       0.015 -22.935  -3.888  0.00  0.00    -0.465 OA
ATOM     68  C53 UNL     1      -1.418 -22.588  -3.606  0.00  0.00    +0.253 C 
ENDBRANCH   7  67
TORSDOF 7
ENDMDL
