MODEL 1
REMARK VINA RESULT:    -5.925      0.000      0.000
REMARK INTER + INTRA:          -9.039
REMARK INTER:                  -8.003
REMARK INTRA:                  -1.036
REMARK UNBOUND:                -1.036
REMARK  Name = /tmp/tmp2go79xja/KG_TEMP_ID_3.pdb
REMARK  6 active torsions:
REMARK  status: ('A' for Active; 'I' for Inactive)
REMARK    1  A    between atoms: C8_9  and  O1_12
REMARK    2  A    between atoms: O1_12  and  C10_13
REMARK    3  A    between atoms: C13_16  and  O3_29
REMARK    4  A    between atoms: C14_17  and  O2_23
REMARK    5  A    between atoms: O2_23  and  C19_24
REMARK    6  A    between atoms: C19_24  and  C20_25
REMARK                            x       y       z     vdW  Elec       q    Type
REMARK                         _______ _______ _______ _____ _____    ______ ____
ROOT
ATOM      1  C10 UNL     1      10.719 -11.146   2.565  0.00  0.00    +0.148 A 
ATOM      2  C11 UNL     1      10.717 -12.592   2.169  0.00  0.00    +0.055 A 
ATOM      3  C12 UNL     1      11.987 -13.245   1.708  0.00  0.00    +0.045 A 
ATOM      4  C13 UNL     1      11.985 -14.692   1.312  0.00  0.00    +0.173 A 
ATOM      5  C14 UNL     1      10.715 -15.486   1.377  0.00  0.00    +0.174 A 
ATOM      6  C15 UNL     1       9.445 -14.834   1.839  0.00  0.00    +0.059 A 
ATOM      7  C16 UNL     1       9.447 -13.387   2.235  0.00  0.00    +0.087 A 
ATOM      8  N2  UNL     1       8.177 -12.735   2.696  0.00  0.00    -0.244 NA
ATOM      9  C17 UNL     1       8.179 -11.288   3.092  0.00  0.00    +0.102 A 
ATOM     10  C18 UNL     1       9.449 -10.493   3.027  0.00  0.00    +0.058 A 
ENDROOT
BRANCH   4  11
ATOM     11  O3  UNL     1      13.255 -15.344   0.850  0.00  0.00    -0.468 OA
ATOM     12  C23 UNL     1      14.581 -14.742   1.210  0.00  0.00    +0.253 C 
ENDBRANCH   4  11
BRANCH   1  13
ATOM     13  O1  UNL     1      11.989 -10.351   2.500  0.00  0.00    -0.451 OA
BRANCH  13  22
ATOM     14  C1  UNL     1      14.607  -7.122   9.159  0.00  0.00    +0.052 C 
ATOM     15  C2  UNL     1      14.017  -7.473   7.825  0.00  0.00    +0.059 A 
ATOM     16  C3  UNL     1      14.006  -8.835   7.196  0.00  0.00    +0.019 A 
ATOM     17  C4  UNL     1      13.316  -8.727   5.869  0.00  0.00    +0.049 A 
ATOM     18  C5  UNL     1      12.901  -7.298   5.677  0.00  0.00    +0.083 A 
ATOM     19  N1  UNL     1      13.334  -6.523   6.887  0.00  0.00    -0.250 NA
ATOM     20  C6  UNL     1      12.181  -6.887   4.426  0.00  0.00    +0.022 A 
ATOM     21  C7  UNL     1      11.878  -7.905   3.367  0.00  0.00    +0.041 A 
ATOM     22  C8  UNL     1      12.293  -9.334   3.559  0.00  0.00    +0.173 A 
ATOM     23  C9  UNL     1      13.012  -9.744   4.809  0.00  0.00    +0.176 A 
ATOM     24  F1  UNL     1      13.427 -11.173   5.001  0.00  0.00    -0.201 F 
ENDBRANCH  13  22
ENDBRANCH   1  13
BRANCH   5  25
ATOM     25  O2  UNL     1      10.713 -16.933   0.981  0.00  0.00    -0.471 OA
BRANCH  25  26
ATOM     26  C19 UNL     1       9.724 -17.433  -0.029  0.00  0.00    +0.223 C 
BRANCH  26  27
ATOM     27  C20 UNL     1       9.679 -16.824  -1.399  0.00  0.00    +0.117 C 
ATOM     28  C21 UNL     1       9.139 -16.140  -2.621  0.00  0.00    +0.023 C 
ATOM     29  C22 UNL     1       8.241 -16.398  -1.448  0.00  0.00    +0.023 C 
ATOM     30  N3  UNL     1      11.100 -17.038  -1.827  0.00  0.00    -0.131 NA
ENDBRANCH  26  27
ENDBRANCH  25  26
ENDBRANCH   5  25
TORSDOF 6
ENDMDL
