MODEL 1
REMARK VINA RESULT:    -6.492      0.000      0.000
REMARK INTER + INTRA:          -2.106
REMARK INTER:                  -7.251
REMARK INTRA:                   5.145
REMARK UNBOUND:                 5.145
REMARK  Name = /tmp/tmp5uxm9b82/sotorasib.pdb
REMARK  2 active torsions:
REMARK  status: ('A' for Active; 'I' for Inactive)
REMARK    1  A    between atoms: C23_33  and  C24_34
REMARK    2  A    between atoms: C28_38  and  C29_40
REMARK                            x       y       z     vdW  Elec       q    Type
REMARK                         _______ _______ _______ _____ _____    ______ ____
ROOT
ATOM      1  C1  UNL     1       7.482 -20.771  -5.505  0.00  0.00    +0.049 C 
ATOM      2  C2  UNL     1       6.338 -20.137  -4.771  0.00  0.00    +0.050 C 
ATOM      3  C3  UNL     1       4.926 -20.458  -5.162  0.00  0.00    +0.083 C 
ATOM      4  N1  UNL     1       3.782 -19.824  -4.428  0.00  0.00    -0.229 N 
ATOM      5  C4  UNL     1       4.050 -18.869  -3.302  0.00  0.00    +0.089 C 
ATOM      6  C5  UNL     1       5.462 -18.549  -2.911  0.00  0.00    +0.087 C 
ATOM      7  N2  UNL     1       6.606 -19.183  -3.645  0.00  0.00    -0.251 N 
ATOM      8  C6  UNL     1       8.018 -18.862  -3.254  0.00  0.00    +0.147 A 
ATOM      9  N3  UNL     1       9.162 -19.496  -3.988  0.00  0.00    -0.176 NA
ATOM     10  C7  UNL     1      10.574 -19.175  -3.596  0.00  0.00    +0.356 A 
ATOM     11  O1  UNL     1      11.316 -19.700  -4.206  0.00  0.00    -0.244 OA
ATOM     12  N4  UNL     1      10.842 -18.221  -2.471  0.00  0.00    -0.242 N 
ATOM     13  C8  UNL     1       9.698 -17.587  -1.737  0.00  0.00    +0.154 A 
ATOM     14  N5  UNL     1       9.966 -16.632  -0.611  0.00  0.00    -0.225 NA
ATOM     15  C9  UNL     1       8.822 -15.998   0.123  0.00  0.00    +0.115 A 
ATOM     16  C10 UNL     1       7.410 -16.319  -0.268  0.00  0.00    +0.158 A 
ATOM     17  C11 UNL     1       7.142 -17.273  -1.394  0.00  0.00    +0.037 A 
ATOM     18  C12 UNL     1       8.286 -17.907  -2.128  0.00  0.00    +0.069 A 
ATOM     19  F1  UNL     1       6.266 -15.685   0.466  0.00  0.00    -0.203 F 
ATOM     20  C13 UNL     1       9.090 -15.044   1.249  0.00  0.00    +0.081 A 
ATOM     21  C14 UNL     1      10.502 -14.723   1.640  0.00  0.00    +0.143 A 
ATOM     22  C15 UNL     1      10.770 -13.768   2.765  0.00  0.00    +0.037 A 
ATOM     23  C16 UNL     1       9.626 -13.134   3.500  0.00  0.00    +0.005 A 
ATOM     24  C17 UNL     1       8.214 -13.455   3.108  0.00  0.00    +0.030 A 
ATOM     25  C18 UNL     1       7.946 -14.410   1.983  0.00  0.00    +0.145 A 
ATOM     26  F2  UNL     1       6.534 -14.730   1.591  0.00  0.00    -0.204 F 
ATOM     27  O2  UNL     1      11.646 -15.357   0.906  0.00  0.00    -0.470 OA
ATOM     28  C19 UNL     1      12.254 -17.900  -2.079  0.00  0.00    +0.086 A 
ATOM     29  C20 UNL     1      12.522 -16.946  -0.954  0.00  0.00    +0.040 A 
ATOM     30  C21 UNL     1      13.934 -16.625  -0.563  0.00  0.00    +0.021 A 
ATOM     31  C22 UNL     1      15.078 -17.259  -1.297  0.00  0.00    +0.099 A 
ATOM     32  N6  UNL     1      14.810 -18.213  -2.422  0.00  0.00    -0.243 NA
ATOM     33  C23 UNL     1      13.398 -18.534  -2.814  0.00  0.00    +0.093 A 
ATOM     34  C27 UNL     1      11.378 -16.312  -0.220  0.00  0.00    +0.234 C 
ATOM     35  C28 UNL     1       2.370 -20.144  -4.819  0.00  0.00    +0.257 C 
ATOM     36  O3  UNL     1       2.102 -21.099  -5.945  0.00  0.00    -0.269 OA
ENDROOT
BRANCH  33  37
ATOM     37  C24 UNL     1      13.130 -19.489  -3.939  0.00  0.00    -0.003 C 
ATOM     38  C25 UNL     1      13.039 -18.981  -5.348  0.00  0.00    +0.033 C 
ATOM     39  C26 UNL     1      12.984 -20.569  -3.864  0.00  0.00    -0.003 C 
ENDBRANCH  33  37
BRANCH  35  40
ATOM     40  C29 UNL     1       1.225 -19.510  -4.085  0.00  0.00    +0.059 C 
ATOM     41  C30 UNL     1      -0.019 -19.122  -4.827  0.00  0.00    +0.005 C 
ENDBRANCH  35  40
TORSDOF 2
ENDMDL
