MODEL 1
REMARK VINA RESULT:    -4.684      0.000      0.000
REMARK INTER + INTRA:          -4.720
REMARK INTER:                  -6.601
REMARK INTRA:                   1.881
REMARK UNBOUND:                 1.881
REMARK  Name = /tmp/tmpm0md0xed/RAD001.pdb
REMARK  7 active torsions:
REMARK  status: ('A' for Active; 'I' for Inactive)
REMARK    1  A    between atoms: C7_7  and  O14_67
REMARK    2  A    between atoms: C18_19  and  O13_62
REMARK    3  A    between atoms: C25_27  and  C35_44
REMARK    4  A    between atoms: C37_46  and  C38_47
REMARK    5  A    between atoms: C41_50  and  O10_55
REMARK    6  A    between atoms: C42_51  and  O9_53
REMARK    7  A    between atoms: O10_55  and  C45_56
REMARK                            x       y       z     vdW  Elec       q    Type
REMARK                         _______ _______ _______ _____ _____    ______ ____
ROOT
ATOM      1  C1  UNL     1      14.013 -16.620  -2.292  0.00  0.00    +0.012 C 
ATOM      2  C2  UNL     1      12.737 -17.191  -2.834  0.00  0.00    +0.096 C 
ATOM      3  C3  UNL     1      12.576 -17.400  -4.311  0.00  0.00    -0.016 C 
ATOM      4  C4  UNL     1      11.300 -17.971  -4.854  0.00  0.00    +0.041 C 
ATOM      5  C5  UNL     1       9.971 -18.449  -4.218  0.00  0.00    +0.179 C 
ATOM      6  C6  UNL     1       8.829 -18.992  -5.025  0.00  0.00    -0.029 C 
ATOM      7  C7  UNL     1       7.543 -19.565  -5.543  0.00  0.00    +0.173 C 
ATOM      8  C8  UNL     1       6.173 -20.141  -5.746  0.00  0.00    +0.020 C 
ATOM      9  C9  UNL     1       4.829 -20.645  -5.310  0.00  0.00    -0.001 C 
ATOM     10  C10 UNL     1       3.440 -21.198  -5.191  0.00  0.00    -0.000 C 
ATOM     11  C11 UNL     1       2.371 -21.535  -4.196  0.00  0.00    +0.000 C 
ATOM     12  C12 UNL     1       1.135 -21.966  -3.463  0.00  0.00    +0.000 C 
ATOM     13  C13 UNL     1       0.537 -22.076  -2.090  0.00  0.00    +0.003 C 
ATOM     14  C14 UNL     1      -0.316 -22.305  -0.879  0.00  0.00    +0.012 C 
ATOM     15  C15 UNL     1      -0.630 -22.291   0.588  0.00  0.00    -0.107 C 
ATOM     16  C16 UNL     1      -0.645 -22.152   2.082  0.00  0.00    +0.054 C 
ATOM     17  C17 UNL     1      -0.361 -21.895   3.532  0.00  0.00    +0.235 C 
ATOM     18  O1  UNL     1      -1.684 -22.383   4.045  0.00  0.00    -0.283 OA
ATOM     19  C18 UNL     1       0.209 -21.534   4.871  0.00  0.00    +0.211 C 
ATOM     20  C19 UNL     1       1.039 -21.084   6.038  0.00  0.00    +0.175 C 
ATOM     21  C20 UNL     1       2.089 -20.566   6.975  0.00  0.00    +0.055 C 
ATOM     22  C21 UNL     1       3.424 -19.988   7.338  0.00  0.00    -0.008 C 
ATOM     23  C22 UNL     1       4.646 -19.427   8.003  0.00  0.00    +0.118 C 
ATOM     24  C23 UNL     1       6.033 -18.860   8.047  0.00  0.00    +0.087 C 
ATOM     25  O2  UNL     1       6.094 -18.690   9.537  0.00  0.00    -0.238 OA
ATOM     26  C24 UNL     1       7.408 -18.328   7.768  0.00  0.00    +0.005 C 
ATOM     27  C25 UNL     1       8.706 -17.858   7.179  0.00  0.00    +0.188 C 
ATOM     28  O3  UNL     1       9.865 -17.471   6.310  0.00  0.00    -0.415 OA
ATOM     29  C26 UNL     1      10.832 -17.186   5.200  0.00  0.00    +0.345 C 
ATOM     30  O4  UNL     1      11.930 -16.655   6.073  0.00  0.00    -0.247 OA
ATOM     31  C27 UNL     1      11.562 -17.015   3.900  0.00  0.00    +0.202 C 
ATOM     32  C28 UNL     1      12.470 -16.540   4.996  0.00  0.00    +0.005 C 
ATOM     33  C29 UNL     1      13.836 -16.017   4.664  0.00  0.00    -0.001 C 
ATOM     34  C30 UNL     1      14.294 -15.970   3.236  0.00  0.00    +0.016 C 
ATOM     35  C31 UNL     1      13.386 -16.445   2.141  0.00  0.00    +0.069 C 
ATOM     36  N1  UNL     1      12.020 -16.968   2.473  0.00  0.00    -0.239 N 
ATOM     37  C32 UNL     1      12.186 -17.045   0.984  0.00  0.00    +0.294 C 
ATOM     38  O5  UNL     1      13.576 -16.484   0.946  0.00  0.00    -0.266 OA
ATOM     39  C33 UNL     1      12.050 -17.243  -0.497  0.00  0.00    +0.292 C 
ATOM     40  O6  UNL     1      13.412 -16.725  -0.855  0.00  0.00    -0.280 OA
ATOM     41  C34 UNL     1      11.621 -17.554  -1.900  0.00  0.00    +0.321 C 
ATOM     42  O7  UNL     1      10.917 -17.962  -3.161  0.00  0.00    -0.442 OA
ATOM     43  O8  UNL     1      12.201 -17.368  -2.413  0.00  0.00    -0.172 OA
ATOM     44  C47 UNL     1       4.117 -19.506   9.405  0.00  0.00    +0.021 C 
ATOM     45  C48 UNL     1       1.296 -20.766   8.232  0.00  0.00    +0.235 C 
ATOM     46  O12 UNL     1       0.019 -21.396   7.092  0.00  0.00    -0.468 OA
ATOM     47  C50 UNL     1      -2.029 -22.695   2.280  0.00  0.00    +0.043 C 
ATOM     48  C51 UNL     1      -1.500 -22.858  -1.617  0.00  0.00    +0.039 C 
ATOM     49  C52 UNL     1       6.264 -20.249  -7.239  0.00  0.00    +0.035 C 
ENDROOT
BRANCH  27  50
ATOM     50  C35 UNL     1       9.343 -17.472   8.481  0.00  0.00    +0.021 C 
ATOM     51  C36 UNL     1      10.704 -17.996   8.834  0.00  0.00    +0.035 C 
ATOM     52  C37 UNL     1       8.621 -16.563   9.430  0.00  0.00    -0.000 C 
BRANCH  52  53
ATOM     53  C38 UNL     1       9.258 -16.177  10.732  0.00  0.00    +0.003 A 
ATOM     54  C39 UNL     1       9.031 -17.015  11.955  0.00  0.00    +0.003 A 
ATOM     55  C40 UNL     1       9.668 -16.630  13.258  0.00  0.00    +0.041 A 
ATOM     56  C41 UNL     1      10.532 -15.406  13.336  0.00  0.00    +0.179 A 
ATOM     57  C42 UNL     1      10.759 -14.568  12.113  0.00  0.00    +0.173 A 
ATOM     58  C43 UNL     1      10.122 -14.953  10.811  0.00  0.00    +0.040 A 
BRANCH  57  59
ATOM     59  O9  UNL     1      11.622 -13.345  12.192  0.00  0.00    -0.468 OA
ATOM     60  C44 UNL     1      13.020 -13.377  11.650  0.00  0.00    +0.253 C 
ENDBRANCH  57  59
BRANCH  56  61
ATOM     61  O10 UNL     1      11.168 -15.021  14.639  0.00  0.00    -0.444 OA
BRANCH  61  62
ATOM     62  C45 UNL     1      12.571 -15.455  14.946  0.00  0.00    +0.225 C 
ATOM     63  C46 UNL     1      13.674 -14.441  15.003  0.00  0.00    +0.275 C 
ATOM     64  O11 UNL     1      15.077 -14.875  15.309  0.00  0.00    -0.280 OA
ENDBRANCH  61  62
ENDBRANCH  56  61
ENDBRANCH  52  53
ENDBRANCH  27  50
BRANCH  19  65
ATOM     65  O13 UNL     1      -0.990 -21.943   5.674  0.00  0.00    -0.465 OA
ATOM     66  C49 UNL     1      -1.995 -20.914   6.100  0.00  0.00    +0.253 C 
ENDBRANCH  19  65
BRANCH   7  67
ATOM     67  O14 UNL     1       7.929 -19.548  -6.991  0.00  0.00    -0.465 OA
ATOM     68  C53 UNL     1       9.288 -19.059  -7.400  0.00  0.00    +0.253 C 
ENDBRANCH   7  67
TORSDOF 7
ENDMDL
