MODEL 1
REMARK VINA RESULT:    -6.499      0.000      0.000
REMARK INTER + INTRA:          -2.133
REMARK INTER:                  -7.259
REMARK INTRA:                   5.127
REMARK UNBOUND:                 5.127
REMARK  Name = /tmp/tmpq49etkhf/KG_TEMP_ID_14.pdb
REMARK  2 active torsions:
REMARK  status: ('A' for Active; 'I' for Inactive)
REMARK    1  A    between atoms: C23_33  and  C24_34
REMARK    2  A    between atoms: C28_38  and  C29_40
REMARK                            x       y       z     vdW  Elec       q    Type
REMARK                         _______ _______ _______ _____ _____    ______ ____
ROOT
ATOM      1  C1  UNL     1       7.408 -20.718  -5.586  0.00  0.00    +0.049 C 
ATOM      2  C2  UNL     1       6.267 -20.109  -4.826  0.00  0.00    +0.050 C 
ATOM      3  C3  UNL     1       4.853 -20.436  -5.205  0.00  0.00    +0.083 C 
ATOM      4  N1  UNL     1       3.713 -19.827  -4.445  0.00  0.00    -0.229 N 
ATOM      5  C4  UNL     1       3.986 -18.891  -3.305  0.00  0.00    +0.089 C 
ATOM      6  C5  UNL     1       5.400 -18.564  -2.926  0.00  0.00    +0.087 C 
ATOM      7  N2  UNL     1       6.541 -19.173  -3.686  0.00  0.00    -0.251 N 
ATOM      8  C6  UNL     1       7.954 -18.846  -3.307  0.00  0.00    +0.147 A 
ATOM      9  N3  UNL     1       9.095 -19.455  -4.067  0.00  0.00    -0.176 NA
ATOM     10  C7  UNL     1      10.509 -19.128  -3.688  0.00  0.00    +0.356 A 
ATOM     11  O1  UNL     1      11.248 -19.633  -4.317  0.00  0.00    -0.244 OA
ATOM     12  N4  UNL     1      10.782 -18.192  -2.548  0.00  0.00    -0.242 N 
ATOM     13  C8  UNL     1       9.642 -17.583  -1.788  0.00  0.00    +0.154 A 
ATOM     14  N5  UNL     1       9.915 -16.647  -0.648  0.00  0.00    -0.225 NA
ATOM     15  C9  UNL     1       8.775 -16.038   0.112  0.00  0.00    +0.115 A 
ATOM     16  C10 UNL     1       7.361 -16.365  -0.267  0.00  0.00    +0.158 A 
ATOM     17  C11 UNL     1       7.087 -17.301  -1.407  0.00  0.00    +0.037 A 
ATOM     18  C12 UNL     1       8.228 -17.910  -2.167  0.00  0.00    +0.069 A 
ATOM     19  F1  UNL     1       6.220 -15.756   0.494  0.00  0.00    -0.203 F 
ATOM     20  C13 UNL     1       9.048 -15.102   1.252  0.00  0.00    +0.081 A 
ATOM     21  C14 UNL     1      10.462 -14.775   1.631  0.00  0.00    +0.143 A 
ATOM     22  C15 UNL     1      10.735 -13.839   2.771  0.00  0.00    +0.037 A 
ATOM     23  C16 UNL     1       9.595 -13.230   3.532  0.00  0.00    +0.005 A 
ATOM     24  C17 UNL     1       8.181 -13.557   3.152  0.00  0.00    +0.030 A 
ATOM     25  C18 UNL     1       7.907 -14.493   2.013  0.00  0.00    +0.145 A 
ATOM     26  F2  UNL     1       6.493 -14.820   1.633  0.00  0.00    -0.204 F 
ATOM     27  O2  UNL     1      11.602 -15.384   0.871  0.00  0.00    -0.470 OA
ATOM     28  C19 UNL     1      12.196 -17.865  -2.169  0.00  0.00    +0.086 A 
ATOM     29  C20 UNL     1      12.470 -16.929  -1.029  0.00  0.00    +0.040 A 
ATOM     30  C21 UNL     1      13.883 -16.601  -0.650  0.00  0.00    +0.021 A 
ATOM     31  C22 UNL     1      15.024 -17.210  -1.410  0.00  0.00    +0.099 A 
ATOM     32  N6  UNL     1      14.751 -18.146  -2.550  0.00  0.00    -0.243 NA
ATOM     33  C23 UNL     1      13.337 -18.473  -2.930  0.00  0.00    +0.093 A 
ATOM     34  C27 UNL     1      11.329 -16.320  -0.269  0.00  0.00    +0.234 C 
ATOM     35  C28 UNL     1       2.299 -20.155  -4.824  0.00  0.00    +0.257 C 
ATOM     36  O3  UNL     1       2.026 -21.091  -5.964  0.00  0.00    -0.269 OA
ENDROOT
BRANCH  33  37
ATOM     37  C24 UNL     1      13.063 -19.409  -4.069  0.00  0.00    -0.003 C 
ATOM     38  C25 UNL     1      12.960 -18.878  -5.468  0.00  0.00    +0.033 C 
ATOM     39  C26 UNL     1      12.921 -20.492  -4.012  0.00  0.00    -0.003 C 
ENDBRANCH  33  37
BRANCH  35  40
ATOM     40  C29 UNL     1       1.158 -19.546  -4.063  0.00  0.00    +0.059 C 
ATOM     41  C30 UNL     1      -0.107 -19.176  -4.779  0.00  0.00    +0.005 C 
ENDBRANCH  35  40
TORSDOF 2
ENDMDL
