MODEL 1
REMARK VINA RESULT:    -6.337      0.000      0.000
REMARK INTER + INTRA:          -7.693
REMARK INTER:                  -7.078
REMARK INTRA:                  -0.615
REMARK UNBOUND:                -0.615
REMARK  Name = /tmp/tmpfgv5uw66/KG_TEMP_ID_9.pdb
REMARK  2 active torsions:
REMARK  status: ('A' for Active; 'I' for Inactive)
REMARK    1  A    between atoms: C2_2  and  C3_3
REMARK    2  A    between atoms: C12_17  and  C16_22
REMARK                            x       y       z     vdW  Elec       q    Type
REMARK                         _______ _______ _______ _____ _____    ______ ____
ROOT
ATOM      1  C3  UNL     1      13.292 -19.347  -1.705  0.00  0.00    +0.257 C 
ATOM      2  O1  UNL     1      12.824 -20.654  -2.273  0.00  0.00    -0.269 OA
ATOM      3  N1  UNL     1      12.319 -18.437  -1.015  0.00  0.00    -0.229 N 
ATOM      4  C4  UNL     1      12.788 -17.130  -0.448  0.00  0.00    +0.089 C 
ATOM      5  C5  UNL     1      11.815 -16.221   0.242  0.00  0.00    +0.087 C 
ATOM      6  N2  UNL     1      10.374 -16.618   0.365  0.00  0.00    -0.246 N 
ATOM      7  C6  UNL     1       9.905 -17.925  -0.203  0.00  0.00    +0.087 C 
ATOM      8  C7  UNL     1      10.878 -18.835  -0.893  0.00  0.00    +0.089 C 
ATOM      9  C8  UNL     1       9.401 -15.709   1.055  0.00  0.00    +0.143 A 
ATOM     10  N3  UNL     1       7.960 -16.106   1.177  0.00  0.00    -0.208 NA
ATOM     11  C9  UNL     1       6.987 -15.197   1.867  0.00  0.00    +0.200 A 
ATOM     12  N4  UNL     1       7.455 -13.890   2.435  0.00  0.00    -0.222 NA
ATOM     13  C10 UNL     1       8.896 -13.492   2.313  0.00  0.00    +0.113 A 
ATOM     14  C11 UNL     1       9.364 -12.185   2.880  0.00  0.00    +0.159 A 
ATOM     15  C12 UNL     1      10.806 -11.788   2.758  0.00  0.00    +0.045 A 
ATOM     16  C13 UNL     1      11.778 -12.697   2.068  0.00  0.00    +0.060 A 
ATOM     17  C14 UNL     1      11.310 -14.004   1.500  0.00  0.00    +0.016 A 
ATOM     18  C15 UNL     1       9.869 -14.402   1.623  0.00  0.00    +0.053 A 
ATOM     19 CL1  UNL     1      13.220 -12.299   1.945  0.00  0.00    -0.082 Cl
ATOM     20  F2  UNL     1       8.392 -11.276   3.570  0.00  0.00    -0.203 F 
ENDROOT
BRANCH  15  21
ATOM     21  C16 UNL     1      11.274 -10.480   3.326  0.00  0.00    +0.069 A 
ATOM     22  C17 UNL     1      12.003 -10.450   4.636  0.00  0.00    +0.198 A 
ATOM     23  C18 UNL     1      12.471  -9.143   5.204  0.00  0.00    +0.042 A 
ATOM     24  C19 UNL     1      12.210  -7.866   4.461  0.00  0.00    +0.006 A 
ATOM     25  C20 UNL     1      11.481  -7.897   3.150  0.00  0.00    +0.030 A 
ATOM     26  C21 UNL     1      11.013  -9.204   2.583  0.00  0.00    +0.143 A 
ATOM     27  F1  UNL     1      10.284  -9.234   1.272  0.00  0.00    -0.204 F 
ATOM     28  O2  UNL     1      12.264 -11.727   5.379  0.00  0.00    -0.286 OA
ENDBRANCH  15  21
BRANCH   1  30
ATOM     29  C1  UNL     1      15.221 -18.271  -3.074  0.00  0.00    +0.005 C 
ATOM     30  C2  UNL     1      14.733 -18.949  -1.828  0.00  0.00    +0.059 C 
ENDBRANCH   1  30
TORSDOF 2
ENDMDL
