MODEL 1
REMARK VINA RESULT:    -5.705      0.000      0.000
REMARK INTER + INTRA:          -8.710
REMARK INTER:                  -8.040
REMARK INTRA:                  -0.670
REMARK UNBOUND:                -0.670
REMARK  Name = /tmp/tmp7bwk8z8o/adagrasib.pdb
REMARK  7 active torsions:
REMARK  status: ('A' for Active; 'I' for Inactive)
REMARK    1  A    between atoms: C5_6  and  C6_7
REMARK    2  A    between atoms: C6_7  and  O1_8
REMARK    3  A    between atoms: O1_8  and  C7_9
REMARK    4  A    between atoms: N3_15  and  C13_17
REMARK    5  A    between atoms: C26_34  and  C28_36
REMARK    6  A    between atoms: C28_36  and  C29_37
REMARK    7  A    between atoms: C30_39  and  C31_41
REMARK                            x       y       z     vdW  Elec       q    Type
REMARK                         _______ _______ _______ _____ _____    ______ ____
ROOT
ATOM      1  C7  UNL     1       8.419 -12.682   2.848  0.00  0.00    +0.321 A 
ATOM      2  N2  UNL     1       7.877 -13.311   1.598  0.00  0.00    -0.197 NA
ATOM      3  C8  UNL     1       8.123 -14.765   1.323  0.00  0.00    +0.087 A 
ATOM      4  C9  UNL     1       8.910 -15.590   2.298  0.00  0.00    +0.049 A 
ATOM      5  C10 UNL     1       9.155 -17.044   2.023  0.00  0.00    +0.020 C 
ATOM      6  C11 UNL     1       8.614 -17.673   0.773  0.00  0.00    +0.066 C 
ATOM      7  N3  UNL     1       7.826 -16.848  -0.201  0.00  0.00    -0.280 N 
ATOM      8  C12 UNL     1       7.581 -15.394   0.074  0.00  0.00    +0.141 C 
ATOM      9  C23 UNL     1       9.452 -14.961   3.547  0.00  0.00    +0.145 A 
ATOM     10  N4  UNL     1       9.206 -13.507   3.822  0.00  0.00    -0.179 NA
ATOM     11  N5  UNL     1      10.239 -15.786   4.521  0.00  0.00    -0.246 N 
ATOM     12  C24 UNL     1      10.781 -15.158   5.771  0.00  0.00    +0.087 C 
ATOM     13  C25 UNL     1      11.568 -15.983   6.745  0.00  0.00    +0.089 C 
ATOM     14  N6  UNL     1      11.814 -17.437   6.470  0.00  0.00    -0.231 N 
ATOM     15  C26 UNL     1      11.272 -18.066   5.221  0.00  0.00    +0.066 C 
ATOM     16  C27 UNL     1      10.484 -17.240   4.246  0.00  0.00    +0.083 C 
ATOM     17  C30 UNL     1      12.601 -18.262   7.445  0.00  0.00    +0.284 C 
ATOM     18  O2  UNL     1      12.846 -19.716   7.170  0.00  0.00    -0.267 OA
ENDROOT
BRANCH   7  19
ATOM     19  C13 UNL     1       7.285 -17.477  -1.451  0.00  0.00    +0.053 A 
ATOM     20  C14 UNL     1       5.876 -17.993  -1.481  0.00  0.00    +0.015 A 
ATOM     21  C15 UNL     1       5.335 -18.621  -2.730  0.00  0.00    +0.001 A 
ATOM     22  C16 UNL     1       6.201 -18.735  -3.949  0.00  0.00    +0.000 A 
ATOM     23  C17 UNL     1       7.610 -18.219  -3.919  0.00  0.00    +0.002 A 
ATOM     24  C18 UNL     1       8.151 -17.590  -2.670  0.00  0.00    +0.024 A 
ATOM     25  C19 UNL     1       9.560 -17.075  -2.639  0.00  0.00    +0.059 A 
ATOM     26  C20 UNL     1      10.426 -17.188  -3.858  0.00  0.00    +0.011 A 
ATOM     27  C21 UNL     1       9.884 -17.817  -5.108  0.00  0.00    +0.001 A 
ATOM     28  C22 UNL     1       8.476 -18.332  -5.138  0.00  0.00    +0.000 A 
ATOM     29 CL1  UNL     1      10.101 -16.446  -1.390  0.00  0.00    -0.082 Cl
ENDBRANCH   7  19
BRANCH  17  30
ATOM     30  C31 UNL     1      13.143 -17.633   8.694  0.00  0.00    +0.194 C 
ATOM     31  C32 UNL     1      12.496 -17.917  10.017  0.00  0.00    +0.037 C 
ATOM     32  F1  UNL     1      14.331 -16.720   8.620  0.00  0.00    -0.199 F 
ENDBRANCH  17  30
BRANCH   1  33
ATOM     33  O1  UNL     1       8.173 -11.228   3.123  0.00  0.00    -0.440 OA
BRANCH  33  34
ATOM     34  C6  UNL     1       9.214 -10.211   2.761  0.00  0.00    +0.252 C 
BRANCH  34  40
ATOM     35  C1  UNL     1      12.087 -11.721   2.422  0.00  0.00    +0.130 C 
ATOM     36  N1  UNL     1      11.738 -10.719   3.482  0.00  0.00    -0.324 N 
ATOM     37  C2  UNL     1      12.648 -10.235   4.572  0.00  0.00    +0.076 A 
ATOM     38  C3  UNL     1      11.890  -9.242   5.401  0.00  0.00    +0.020 A 
ATOM     39  C4  UNL     1      10.511  -9.112   4.824  0.00  0.00    +0.018 A 
ATOM     40  C5  UNL     1      10.417 -10.025   3.638  0.00  0.00    +0.081 A 
ENDBRANCH  34  40
ENDBRANCH  33  34
ENDBRANCH   1  33
BRANCH  15  41
ATOM     41  C28 UNL     1      11.517 -19.519   4.946  0.00  0.00    +0.148 C 
BRANCH  41  42
ATOM     42  C29 UNL     1      10.821 -20.194   3.802  0.00  0.00    +0.079 C 
ATOM     43  N7  UNL     1      10.124 -20.869   2.657  0.00  0.00    -0.195 NA
ENDBRANCH  41  42
ENDBRANCH  15  41
TORSDOF 7
ENDMDL
