MODEL 1
REMARK VINA RESULT:    -6.780      0.000      0.000
REMARK INTER + INTRA:          -9.616
REMARK INTER:                  -8.762
REMARK INTRA:                  -0.854
REMARK UNBOUND:                -0.854
REMARK  Name = /tmp/tmp3gq0sg3r/ibrutinib.pdb
REMARK  5 active torsions:
REMARK  status: ('A' for Active; 'I' for Inactive)
REMARK    1  A    between atoms: C2_2  and  C3_3
REMARK    2  A    between atoms: C7_9  and  N2_11
REMARK    3  A    between atoms: C13_18  and  C14_20
REMARK    4  A    between atoms: C17_23  and  O2_26
REMARK    5  A    between atoms: O2_26  and  C20_27
REMARK                            x       y       z     vdW  Elec       q    Type
REMARK                         _______ _______ _______ _____ _____    ______ ____
ROOT
ATOM      1  N2  UNL     1       5.388 -18.997  -2.800  0.00  0.00    -0.211 N 
ATOM      2  C9  UNL     1       6.549 -18.849  -3.739  0.00  0.00    +0.170 A 
ATOM      3  N3  UNL     1       6.772 -19.330  -5.142  0.00  0.00    -0.205 NA
ATOM      4  C10 UNL     1       8.062 -19.024  -5.844  0.00  0.00    +0.202 A 
ATOM      5  N4  UNL     1       9.129 -18.237  -5.142  0.00  0.00    -0.206 NA
ATOM      6  C11 UNL     1       8.906 -17.756  -3.739  0.00  0.00    +0.176 A 
ATOM      7  C12 UNL     1       7.616 -18.062  -3.037  0.00  0.00    +0.090 A 
ATOM      8  C13 UNL     1       7.114 -17.723  -1.664  0.00  0.00    +0.107 A 
ATOM      9  N5  UNL     1       5.738 -18.301  -1.519  0.00  0.00    -0.164 NA
ATOM     10  N6  UNL     1       9.972 -16.968  -3.037  0.00  0.00    -0.107 NA
ENDROOT
BRANCH   1  17
ATOM     11  C3  UNL     1       0.830 -19.235  -5.283  0.00  0.00    +0.253 C 
ATOM     12  O1  UNL     1       1.119 -17.918  -5.941  0.00  0.00    -0.270 OA
ATOM     13  N1  UNL     1       1.825 -19.834  -4.334  0.00  0.00    -0.248 N 
ATOM     14  C4  UNL     1       1.536 -21.150  -3.676  0.00  0.00    +0.125 C 
ATOM     15  C5  UNL     1       2.530 -21.749  -2.727  0.00  0.00    -0.003 C 
ATOM     16  C6  UNL     1       3.815 -21.031  -2.435  0.00  0.00    +0.018 C 
ATOM     17  C7  UNL     1       4.104 -19.714  -3.092  0.00  0.00    +0.099 C 
ATOM     18  C8  UNL     1       3.109 -19.116  -4.041  0.00  0.00    +0.087 C 
BRANCH  11  20
ATOM     19  C1  UNL     1      -1.766 -19.318  -5.219  0.00  0.00    +0.005 C 
ATOM     20  C2  UNL     1      -0.455 -19.953  -5.575  0.00  0.00    +0.058 C 
ENDBRANCH  11  20
ENDBRANCH   1  17
BRANCH   8  21
ATOM     21  C14 UNL     1       7.859 -16.943  -0.622  0.00  0.00    +0.020 A 
ATOM     22  C15 UNL     1       7.759 -15.447  -0.590  0.00  0.00    +0.005 A 
ATOM     23  C16 UNL     1       8.503 -14.667   0.452  0.00  0.00    +0.038 A 
ATOM     24  C17 UNL     1       9.348 -15.383   1.463  0.00  0.00    +0.145 A 
ATOM     25  C18 UNL     1       9.449 -16.879   1.432  0.00  0.00    +0.038 A 
ATOM     26  C19 UNL     1       8.704 -17.659   0.389  0.00  0.00    +0.005 A 
BRANCH  24  27
ATOM     27  O2  UNL     1      10.093 -14.604   2.506  0.00  0.00    -0.453 OA
BRANCH  27  28
ATOM     28  C20 UNL     1       9.958 -13.111   2.565  0.00  0.00    +0.145 A 
ATOM     29  C21 UNL     1       8.653 -12.491   2.966  0.00  0.00    +0.037 A 
ATOM     30  C22 UNL     1       8.517 -10.999   3.025  0.00  0.00    +0.003 A 
ATOM     31  C23 UNL     1       9.688 -10.126   2.683  0.00  0.00    +0.000 A 
ATOM     32  C24 UNL     1      10.994 -10.745   2.282  0.00  0.00    +0.003 A 
ATOM     33  C25 UNL     1      11.129 -12.238   2.223  0.00  0.00    +0.037 A 
ENDBRANCH  27  28
ENDBRANCH  24  27
ENDBRANCH   8  21
TORSDOF 5
ENDMDL
