MODEL 1
REMARK VINA RESULT:    -3.886      0.000      0.000
REMARK INTER + INTRA:          -4.958
REMARK INTER:                  -4.568
REMARK INTRA:                  -0.390
REMARK UNBOUND:                -0.390
REMARK  Name = /tmp/tmpjjjl4di8/KG_TEMP_ID_6.pdb
REMARK  3 active torsions:
REMARK  status: ('A' for Active; 'I' for Inactive)
REMARK    1  A    between atoms: C2_2  and  O2_4
REMARK    2  A    between atoms: O2_4  and  C3_5
REMARK    3  A    between atoms: C8_10  and  C9_11
REMARK                            x       y       z     vdW  Elec       q    Type
REMARK                         _______ _______ _______ _____ _____    ______ ____
ROOT
ATOM      1  C3  UNL     1      10.607 -10.684   2.474  0.00  0.00    +0.155 A 
ATOM      2  C4  UNL     1       9.167 -10.271   2.401  0.00  0.00    +0.038 A 
ATOM      3  C5  UNL     1       8.093 -11.312   2.294  0.00  0.00    +0.003 A 
ATOM      4  C6  UNL     1       8.458 -12.766   2.261  0.00  0.00    +0.000 A 
ATOM      5  C7  UNL     1       9.898 -13.180   2.335  0.00  0.00    +0.010 A 
ATOM      6  C8  UNL     1      10.972 -12.139   2.442  0.00  0.00    +0.114 A 
ENDROOT
BRANCH   6   7
ATOM      7  C9  UNL     1      12.412 -12.552   2.515  0.00  0.00    +0.391 C 
ATOM      8  O3  UNL     1      13.180 -12.372   3.792  0.00  0.00    -0.240 OA
ATOM      9  O4  UNL     1      13.085 -13.145   1.313  0.00  0.00    -0.240 OA
ENDBRANCH   6   7
BRANCH   1  10
ATOM     10  O2  UNL     1      11.682  -9.643   2.581  0.00  0.00    -0.424 OA
BRANCH  10  12
ATOM     11  C1  UNL     1      11.804  -9.399   5.165  0.00  0.00    +0.122 C 
ATOM     12  C2  UNL     1      11.766  -8.775   3.801  0.00  0.00    +0.322 C 
ATOM     13  O1  UNL     1      11.814  -7.282   3.658  0.00  0.00    -0.250 OA
ENDBRANCH  10  12
ENDBRANCH   1  10
TORSDOF 3
ENDMDL
