MODEL 1
REMARK VINA RESULT:    -5.335      0.000      0.000
REMARK INTER + INTRA:          -8.753
REMARK INTER:                  -6.894
REMARK INTRA:                  -1.858
REMARK UNBOUND:                -1.858
REMARK  Name = /tmp/tmpramfzu2v/Garsorasib.pdb
REMARK  5 active torsions:
REMARK  status: ('A' for Active; 'I' for Inactive)
REMARK    1  A    between atoms: C6_8  and  C7_10
REMARK    2  A    between atoms: N4_17  and  C23_33
REMARK    3  A    between atoms: C13_20  and  C17_25
REMARK    4  A    between atoms: C24_34  and  C30_42
REMARK    5  A    between atoms: C26_38  and  C27_39
REMARK                            x       y       z     vdW  Elec       q    Type
REMARK                         _______ _______ _______ _____ _____    ______ ____
ROOT
ATOM      1  C1  UNL     1      11.703  -8.487   3.531  0.00  0.00    +0.049 C 
ATOM      2  C2  UNL     1      12.414  -9.398   4.488  0.00  0.00    +0.051 C 
ATOM      3  C3  UNL     1      12.188 -10.879   4.422  0.00  0.00    +0.081 C 
ATOM      4  N1  UNL     1      12.899 -11.790   5.379  0.00  0.00    -0.251 N 
ATOM      5  C4  UNL     1      13.836 -11.219   6.402  0.00  0.00    +0.050 C 
ATOM      6  C5  UNL     1      14.062  -9.737   6.468  0.00  0.00    +0.083 C 
ATOM      7  N2  UNL     1      13.351  -8.827   5.511  0.00  0.00    -0.234 N 
ATOM      8  C6  UNL     1      13.577  -7.346   5.577  0.00  0.00    +0.256 C 
ATOM      9  O1  UNL     1      12.866  -6.435   4.620  0.00  0.00    -0.269 OA
ATOM     10  C9  UNL     1      14.547 -12.129   7.359  0.00  0.00    +0.049 C 
ATOM     11  C10 UNL     1      12.673 -13.271   5.313  0.00  0.00    +0.147 A 
ATOM     12  N3  UNL     1      13.384 -14.182   6.270  0.00  0.00    -0.176 NA
ATOM     13  C11 UNL     1      13.158 -15.663   6.204  0.00  0.00    +0.356 A 
ATOM     14  O2  UNL     1      14.010 -16.259   7.284  0.00  0.00    -0.244 OA
ATOM     15  N4  UNL     1      12.221 -16.234   5.181  0.00  0.00    -0.241 N 
ATOM     16  C12 UNL     1      11.511 -15.324   4.224  0.00  0.00    +0.154 A 
ATOM     17  N5  UNL     1      10.574 -15.895   3.201  0.00  0.00    -0.225 NA
ATOM     18  C13 UNL     1       9.863 -14.984   2.244  0.00  0.00    +0.114 A 
ATOM     19  C14 UNL     1      10.089 -13.503   2.310  0.00  0.00    +0.158 A 
ATOM     20  C15 UNL     1      11.026 -12.932   3.333  0.00  0.00    +0.037 A 
ATOM     21  C16 UNL     1      11.736 -13.842   4.290  0.00  0.00    +0.069 A 
ATOM     22  F1  UNL     1       9.378 -12.592   1.353  0.00  0.00    -0.203 F 
ENDROOT
BRANCH  18  23
ATOM     23  C17 UNL     1       8.926 -15.555   1.221  0.00  0.00    +0.064 A 
ATOM     24  C18 UNL     1       9.466 -16.359   0.076  0.00  0.00    +0.093 A 
ATOM     25  C19 UNL     1       8.529 -16.930  -0.947  0.00  0.00    +0.018 A 
ATOM     26  C20 UNL     1       7.053 -16.697  -0.825  0.00  0.00    +0.004 A 
ATOM     27  C21 UNL     1       6.513 -15.893   0.320  0.00  0.00    +0.030 A 
ATOM     28  C22 UNL     1       7.450 -15.322   1.343  0.00  0.00    +0.143 A 
ATOM     29  F2  UNL     1       6.910 -14.518   2.489  0.00  0.00    -0.204 F 
ATOM     30  N6  UNL     1      10.257 -16.378   0.173  0.00  0.00    -0.128 NA
ENDBRANCH  18  23
BRANCH  15  31
ATOM     31  C23 UNL     1      11.996 -17.715   5.115  0.00  0.00    +0.097 A 
ATOM     32  C24 UNL     1      12.833 -18.562   4.203  0.00  0.00    +0.078 A 
ATOM     33  N7  UNL     1      12.607 -20.043   4.137  0.00  0.00    -0.227 NA
ATOM     34  C25 UNL     1      11.544 -20.678   4.982  0.00  0.00    +0.198 A 
ATOM     35  N8  UNL     1      10.706 -19.832   5.894  0.00  0.00    -0.227 NA
ATOM     36  C26 UNL     1      10.932 -18.350   5.960  0.00  0.00    +0.078 A 
BRANCH  36  37
ATOM     37  C27 UNL     1      10.094 -17.504   6.872  0.00  0.00    +0.042 C 
ATOM     38  C28 UNL     1       8.747 -17.033   7.334  0.00  0.00    +0.006 C 
ATOM     39  C29 UNL     1       9.990 -16.509   7.990  0.00  0.00    +0.006 C 
ENDBRANCH  36  37
BRANCH  32  40
ATOM     40  C30 UNL     1      13.897 -17.927   3.357  0.00  0.00    +0.042 C 
ATOM     41  C31 UNL     1      14.448 -17.582   2.005  0.00  0.00    +0.006 C 
ATOM     42  C32 UNL     1      15.188 -17.172   3.244  0.00  0.00    +0.006 C 
ENDBRANCH  32  40
ENDBRANCH  15  31
BRANCH   8  43
ATOM     43  C7  UNL     1      14.513  -6.775   6.600  0.00  0.00    +0.059 C 
ATOM     44  C8  UNL     1      14.010  -6.435   7.972  0.00  0.00    +0.005 C 
ENDBRANCH   8  43
TORSDOF 5
ENDMDL
