MODEL 1
REMARK VINA RESULT:    -5.698      0.000      0.000
REMARK INTER + INTRA:          -8.717
REMARK INTER:                  -8.029
REMARK INTRA:                  -0.688
REMARK UNBOUND:                -0.688
REMARK  Name = /tmp/tmpvdrb6y32/Adagrasib.pdb
REMARK  7 active torsions:
REMARK  status: ('A' for Active; 'I' for Inactive)
REMARK    1  A    between atoms: C5_6  and  C6_7
REMARK    2  A    between atoms: C6_7  and  O1_8
REMARK    3  A    between atoms: O1_8  and  C7_9
REMARK    4  A    between atoms: N3_15  and  C13_17
REMARK    5  A    between atoms: C26_34  and  C28_36
REMARK    6  A    between atoms: C28_36  and  C29_37
REMARK    7  A    between atoms: C30_39  and  C31_41
REMARK                            x       y       z     vdW  Elec       q    Type
REMARK                         _______ _______ _______ _____ _____    ______ ____
ROOT
ATOM      1  C7  UNL     1       8.441 -12.675   2.854  0.00  0.00    +0.321 A 
ATOM      2  N2  UNL     1       7.910 -13.309   1.602  0.00  0.00    -0.197 NA
ATOM      3  C8  UNL     1       8.160 -14.763   1.334  0.00  0.00    +0.087 A 
ATOM      4  C9  UNL     1       8.941 -15.583   2.318  0.00  0.00    +0.049 A 
ATOM      5  C10 UNL     1       9.192 -17.038   2.050  0.00  0.00    +0.020 C 
ATOM      6  C11 UNL     1       8.661 -17.672   0.798  0.00  0.00    +0.066 C 
ATOM      7  N3  UNL     1       7.879 -16.852  -0.185  0.00  0.00    -0.280 N 
ATOM      8  C12 UNL     1       7.629 -15.398   0.083  0.00  0.00    +0.141 C 
ATOM      9  C23 UNL     1       9.472 -14.949   3.569  0.00  0.00    +0.145 A 
ATOM     10  N4  UNL     1       9.222 -13.495   3.837  0.00  0.00    -0.179 NA
ATOM     11  N5  UNL     1      10.254 -15.769   4.552  0.00  0.00    -0.246 N 
ATOM     12  C24 UNL     1      10.785 -15.135   5.803  0.00  0.00    +0.087 C 
ATOM     13  C25 UNL     1      11.566 -15.955   6.787  0.00  0.00    +0.089 C 
ATOM     14  N6  UNL     1      11.816 -17.410   6.519  0.00  0.00    -0.231 N 
ATOM     15  C26 UNL     1      11.285 -18.044   5.267  0.00  0.00    +0.066 C 
ATOM     16  C27 UNL     1      10.504 -17.224   4.284  0.00  0.00    +0.083 C 
ATOM     17  C30 UNL     1      12.598 -18.230   7.502  0.00  0.00    +0.284 C 
ATOM     18  O2  UNL     1      12.848 -19.684   7.234  0.00  0.00    -0.267 OA
ENDROOT
BRANCH   7  19
ATOM     19  C13 UNL     1       7.348 -17.486  -1.436  0.00  0.00    +0.053 A 
ATOM     20  C14 UNL     1       5.946 -18.019  -1.470  0.00  0.00    +0.015 A 
ATOM     21  C15 UNL     1       5.415 -18.653  -2.722  0.00  0.00    +0.001 A 
ATOM     22  C16 UNL     1       6.286 -18.755  -3.939  0.00  0.00    +0.000 A 
ATOM     23  C17 UNL     1       7.688 -18.222  -3.905  0.00  0.00    +0.002 A 
ATOM     24  C18 UNL     1       8.219 -17.588  -2.653  0.00  0.00    +0.024 A 
ATOM     25  C19 UNL     1       9.621 -17.055  -2.619  0.00  0.00    +0.059 A 
ATOM     26  C20 UNL     1      10.491 -17.157  -3.836  0.00  0.00    +0.011 A 
ATOM     27  C21 UNL     1       9.960 -17.791  -5.088  0.00  0.00    +0.001 A 
ATOM     28  C22 UNL     1       8.559 -18.324  -5.122  0.00  0.00    +0.000 A 
ATOM     29 CL1  UNL     1      10.152 -16.421  -1.368  0.00  0.00    -0.082 Cl
ENDBRANCH   7  19
BRANCH  17  30
ATOM     30  C31 UNL     1      13.129 -17.596   8.753  0.00  0.00    +0.194 C 
ATOM     31  C32 UNL     1      12.441 -17.833  10.065  0.00  0.00    +0.037 C 
ATOM     32  F1  UNL     1      14.348 -16.724   8.693  0.00  0.00    -0.199 F 
ENDBRANCH  17  30
BRANCH   1  33
ATOM     33  O1  UNL     1       8.190 -11.220   3.122  0.00  0.00    -0.440 OA
BRANCH  33  34
ATOM     34  C6  UNL     1       9.231 -10.201   2.764  0.00  0.00    +0.252 C 
BRANCH  34  40
ATOM     35  C1  UNL     1      12.107 -11.704   2.421  0.00  0.00    +0.130 C 
ATOM     36  N1  UNL     1      11.755 -10.707   3.485  0.00  0.00    -0.324 N 
ATOM     37  C2  UNL     1      12.663 -10.226   4.577  0.00  0.00    +0.076 A 
ATOM     38  C3  UNL     1      11.902  -9.238   5.410  0.00  0.00    +0.020 A 
ATOM     39  C4  UNL     1      10.523  -9.108   4.832  0.00  0.00    +0.018 A 
ATOM     40  C5  UNL     1      10.433 -10.017   3.642  0.00  0.00    +0.081 A 
ENDBRANCH  34  40
ENDBRANCH  33  34
ENDBRANCH   1  33
BRANCH  15  41
ATOM     41  C28 UNL     1      11.536 -19.498   4.999  0.00  0.00    +0.148 C 
BRANCH  41  42
ATOM     42  C29 UNL     1      10.957 -20.146   3.777  0.00  0.00    +0.079 C 
ATOM     43  N7  UNL     1      10.377 -20.794   2.554  0.00  0.00    -0.195 NA
ENDBRANCH  41  42
ENDBRANCH  15  41
TORSDOF 7
ENDMDL
