MODEL 1
REMARK VINA RESULT:    -5.955      0.000      0.000
REMARK INTER + INTRA:          -1.490
REMARK INTER:                  -6.651
REMARK INTRA:                   5.161
REMARK UNBOUND:                 5.161
REMARK  Name = /tmp/tmpr2nf9a3g/Sotorasib.pdb
REMARK  2 active torsions:
REMARK  status: ('A' for Active; 'I' for Inactive)
REMARK    1  A    between atoms: C23_33  and  C24_34
REMARK    2  A    between atoms: C28_38  and  C29_40
REMARK                            x       y       z     vdW  Elec       q    Type
REMARK                         _______ _______ _______ _____ _____    ______ ____
ROOT
ATOM      1  C1  UNL     1       9.726 -10.604   1.976  0.00  0.00    +0.049 C 
ATOM      2  C2  UNL     1      10.760 -10.489   3.056  0.00  0.00    +0.050 C 
ATOM      3  C3  UNL     1      11.160  -9.138   3.571  0.00  0.00    +0.083 C 
ATOM      4  N1  UNL     1      12.194  -9.022   4.651  0.00  0.00    -0.229 N 
ATOM      5  C4  UNL     1      12.829 -10.258   5.216  0.00  0.00    +0.089 C 
ATOM      6  C5  UNL     1      12.430 -11.609   4.702  0.00  0.00    +0.087 C 
ATOM      7  N2  UNL     1      11.395 -11.724   3.622  0.00  0.00    -0.251 N 
ATOM      8  C6  UNL     1      10.996 -13.076   3.107  0.00  0.00    +0.147 A 
ATOM      9  N3  UNL     1       9.961 -13.191   2.027  0.00  0.00    -0.176 NA
ATOM     10  C7  UNL     1       9.562 -14.542   1.513  0.00  0.00    +0.356 A 
ATOM     11  O1  UNL     1       8.801 -14.493   0.728  0.00  0.00    -0.244 OA
ATOM     12  N4  UNL     1      10.197 -15.778   2.078  0.00  0.00    -0.242 N 
ATOM     13  C8  UNL     1      11.232 -15.662   3.158  0.00  0.00    +0.154 A 
ATOM     14  N5  UNL     1      11.867 -16.898   3.723  0.00  0.00    -0.225 NA
ATOM     15  C9  UNL     1      12.901 -16.783   4.803  0.00  0.00    +0.115 A 
ATOM     16  C10 UNL     1      13.301 -15.431   5.318  0.00  0.00    +0.158 A 
ATOM     17  C11 UNL     1      12.666 -14.196   4.753  0.00  0.00    +0.037 A 
ATOM     18  C12 UNL     1      11.631 -14.311   3.673  0.00  0.00    +0.069 A 
ATOM     19  F1  UNL     1      14.335 -15.316   6.398  0.00  0.00    -0.203 F 
ATOM     20  C13 UNL     1      13.536 -18.018   5.369  0.00  0.00    +0.081 A 
ATOM     21  C14 UNL     1      13.137 -19.369   4.854  0.00  0.00    +0.143 A 
ATOM     22  C15 UNL     1      13.772 -20.605   5.420  0.00  0.00    +0.037 A 
ATOM     23  C16 UNL     1      14.807 -20.490   6.500  0.00  0.00    +0.005 A 
ATOM     24  C17 UNL     1      15.206 -19.138   7.014  0.00  0.00    +0.030 A 
ATOM     25  C18 UNL     1      14.571 -17.903   6.449  0.00  0.00    +0.145 A 
ATOM     26  F2  UNL     1      14.970 -16.552   6.963  0.00  0.00    -0.204 F 
ATOM     27  O2  UNL     1      12.102 -19.485   3.774  0.00  0.00    -0.470 OA
ATOM     28  C19 UNL     1       9.798 -17.129   1.563  0.00  0.00    +0.086 A 
ATOM     29  C20 UNL     1      10.433 -18.365   2.129  0.00  0.00    +0.040 A 
ATOM     30  C21 UNL     1      10.034 -19.716   1.614  0.00  0.00    +0.021 A 
ATOM     31  C22 UNL     1       8.999 -19.831   0.534  0.00  0.00    +0.099 A 
ATOM     32  N6  UNL     1       8.364 -18.596  -0.031  0.00  0.00    -0.243 NA
ATOM     33  C23 UNL     1       8.763 -17.245   0.483  0.00  0.00    +0.093 A 
ATOM     34  C27 UNL     1      11.467 -18.249   3.209  0.00  0.00    +0.234 C 
ATOM     35  C28 UNL     1      12.593  -7.671   5.166  0.00  0.00    +0.257 C 
ATOM     36  O3  UNL     1      11.958  -6.435   4.600  0.00  0.00    -0.269 OA
ENDROOT
BRANCH  33  37
ATOM     37  C24 UNL     1       8.128 -16.009  -0.082  0.00  0.00    -0.003 C 
ATOM     38  C25 UNL     1       6.903 -15.433   0.564  0.00  0.00    +0.033 C 
ATOM     39  C26 UNL     1       8.460 -15.439  -0.954  0.00  0.00    -0.003 C 
ENDBRANCH  33  37
BRANCH  35  40
ATOM     40  C29 UNL     1      13.628  -7.555   6.246  0.00  0.00    +0.059 C 
ATOM     41  C30 UNL     1      13.542  -6.445   7.251  0.00  0.00    +0.005 C 
ENDBRANCH  35  40
TORSDOF 2
ENDMDL
