MODEL 1
REMARK VINA RESULT:    -5.693      0.000      0.000
REMARK INTER + INTRA:          -8.716
REMARK INTER:                  -8.022
REMARK INTRA:                  -0.694
REMARK UNBOUND:                -0.694
REMARK  Name = /tmp/tmptckifwjd/MRTX849.pdb
REMARK  7 active torsions:
REMARK  status: ('A' for Active; 'I' for Inactive)
REMARK    1  A    between atoms: C5_6  and  C6_7
REMARK    2  A    between atoms: C6_7  and  O1_8
REMARK    3  A    between atoms: O1_8  and  C7_9
REMARK    4  A    between atoms: N3_15  and  C13_17
REMARK    5  A    between atoms: C26_34  and  C28_36
REMARK    6  A    between atoms: C28_36  and  C29_37
REMARK    7  A    between atoms: C30_39  and  C31_41
REMARK                            x       y       z     vdW  Elec       q    Type
REMARK                         _______ _______ _______ _____ _____    ______ ____
ROOT
ATOM      1  C7  UNL     1       8.442 -12.663   2.846  0.00  0.00    +0.321 A 
ATOM      2  N2  UNL     1       7.895 -13.292   1.599  0.00  0.00    -0.197 NA
ATOM      3  C8  UNL     1       8.134 -14.748   1.326  0.00  0.00    +0.087 A 
ATOM      4  C9  UNL     1       8.921 -15.574   2.299  0.00  0.00    +0.049 A 
ATOM      5  C10 UNL     1       9.161 -17.029   2.026  0.00  0.00    +0.020 C 
ATOM      6  C11 UNL     1       8.614 -17.658   0.779  0.00  0.00    +0.066 C 
ATOM      7  N3  UNL     1       7.827 -16.832  -0.195  0.00  0.00    -0.280 N 
ATOM      8  C12 UNL     1       7.587 -15.377   0.079  0.00  0.00    +0.141 C 
ATOM      9  C23 UNL     1       9.468 -14.945   3.546  0.00  0.00    +0.145 A 
ATOM     10  N4  UNL     1       9.229 -13.490   3.819  0.00  0.00    -0.179 NA
ATOM     11  N5  UNL     1      10.255 -15.771   4.520  0.00  0.00    -0.246 N 
ATOM     12  C24 UNL     1      10.803 -15.142   5.767  0.00  0.00    +0.087 C 
ATOM     13  C25 UNL     1      11.590 -15.969   6.740  0.00  0.00    +0.089 C 
ATOM     14  N6  UNL     1      11.829 -17.424   6.467  0.00  0.00    -0.231 N 
ATOM     15  C26 UNL     1      11.282 -18.053   5.220  0.00  0.00    +0.066 C 
ATOM     16  C27 UNL     1      10.495 -17.227   4.246  0.00  0.00    +0.083 C 
ATOM     17  C30 UNL     1      12.616 -18.250   7.441  0.00  0.00    +0.284 C 
ATOM     18  O2  UNL     1      12.856 -19.705   7.167  0.00  0.00    -0.267 OA
ENDROOT
BRANCH   7  19
ATOM     19  C13 UNL     1       7.279 -17.461  -1.442  0.00  0.00    +0.053 A 
ATOM     20  C14 UNL     1       5.878 -17.996  -1.459  0.00  0.00    +0.015 A 
ATOM     21  C15 UNL     1       5.331 -18.625  -2.706  0.00  0.00    +0.001 A 
ATOM     22  C16 UNL     1       6.185 -18.719  -3.936  0.00  0.00    +0.000 A 
ATOM     23  C17 UNL     1       7.586 -18.183  -3.918  0.00  0.00    +0.002 A 
ATOM     24  C18 UNL     1       8.133 -17.554  -2.671  0.00  0.00    +0.024 A 
ATOM     25  C19 UNL     1       9.534 -17.019  -2.654  0.00  0.00    +0.059 A 
ATOM     26  C20 UNL     1      10.388 -17.112  -3.884  0.00  0.00    +0.011 A 
ATOM     27  C21 UNL     1       9.841 -17.741  -5.131  0.00  0.00    +0.001 A 
ATOM     28  C22 UNL     1       8.440 -18.277  -5.148  0.00  0.00    +0.000 A 
ATOM     29 CL1  UNL     1      10.082 -16.390  -1.407  0.00  0.00    -0.082 Cl
ENDBRANCH   7  19
BRANCH  17  30
ATOM     30  C31 UNL     1      13.163 -17.621   8.688  0.00  0.00    +0.194 C 
ATOM     31  C32 UNL     1      12.535 -17.920  10.016  0.00  0.00    +0.037 C 
ATOM     32  F1  UNL     1      14.339 -16.693   8.606  0.00  0.00    -0.199 F 
ENDBRANCH  17  30
BRANCH   1  33
ATOM     33  O1  UNL     1       8.202 -11.208   3.119  0.00  0.00    -0.440 OA
BRANCH  33  34
ATOM     34  C6  UNL     1       9.239 -10.193   2.739  0.00  0.00    +0.252 C 
BRANCH  34  40
ATOM     35  C1  UNL     1      12.102 -11.705   2.337  0.00  0.00    +0.130 C 
ATOM     36  N1  UNL     1      11.776 -10.706   3.407  0.00  0.00    -0.324 N 
ATOM     37  C2  UNL     1      12.707 -10.227   4.480  0.00  0.00    +0.076 A 
ATOM     38  C3  UNL     1      11.967  -9.236   5.328  0.00  0.00    +0.020 A 
ATOM     39  C4  UNL     1      10.577  -9.102   4.779  0.00  0.00    +0.018 A 
ATOM     40  C5  UNL     1      10.459 -10.011   3.592  0.00  0.00    +0.081 A 
ENDBRANCH  34  40
ENDBRANCH  33  34
ENDBRANCH   1  33
BRANCH  15  41
ATOM     41  C28 UNL     1      11.522 -19.508   4.947  0.00  0.00    +0.148 C 
BRANCH  41  42
ATOM     42  C29 UNL     1      10.948 -20.144   3.716  0.00  0.00    +0.079 C 
ATOM     43  N7  UNL     1      10.374 -20.781   2.485  0.00  0.00    -0.195 NA
ENDBRANCH  41  42
ENDBRANCH  15  41
TORSDOF 7
ENDMDL
