MODEL 1
REMARK VINA RESULT:    -6.777      0.000      0.000
REMARK INTER + INTRA:          -9.600
REMARK INTER:                  -8.758
REMARK INTRA:                  -0.842
REMARK UNBOUND:                -0.842
REMARK  Name = /tmp/tmp2pyvfll1/KG_TEMP_ID_7.pdb
REMARK  5 active torsions:
REMARK  status: ('A' for Active; 'I' for Inactive)
REMARK    1  A    between atoms: C2_2  and  C3_3
REMARK    2  A    between atoms: C7_9  and  N2_11
REMARK    3  A    between atoms: C13_18  and  C14_20
REMARK    4  A    between atoms: C17_23  and  O2_26
REMARK    5  A    between atoms: O2_26  and  C20_27
REMARK                            x       y       z     vdW  Elec       q    Type
REMARK                         _______ _______ _______ _____ _____    ______ ____
ROOT
ATOM      1  N2  UNL     1       5.362 -18.988  -2.814  0.00  0.00    -0.211 N 
ATOM      2  C9  UNL     1       6.523 -18.843  -3.754  0.00  0.00    +0.170 A 
ATOM      3  N3  UNL     1       6.745 -19.325  -5.157  0.00  0.00    -0.205 NA
ATOM      4  C10 UNL     1       8.035 -19.021  -5.859  0.00  0.00    +0.202 A 
ATOM      5  N4  UNL     1       9.103 -18.234  -5.159  0.00  0.00    -0.206 NA
ATOM      6  C11 UNL     1       8.881 -17.752  -3.756  0.00  0.00    +0.176 A 
ATOM      7  C12 UNL     1       7.591 -18.056  -3.054  0.00  0.00    +0.090 A 
ATOM      8  C13 UNL     1       7.091 -17.715  -1.680  0.00  0.00    +0.107 A 
ATOM      9  N5  UNL     1       5.714 -18.291  -1.533  0.00  0.00    -0.164 NA
ATOM     10  N6  UNL     1       9.949 -16.965  -3.056  0.00  0.00    -0.107 NA
ENDROOT
BRANCH   1  17
ATOM     11  C3  UNL     1       0.766 -19.183  -5.229  0.00  0.00    +0.253 C 
ATOM     12  O1  UNL     1       1.038 -17.848  -5.855  0.00  0.00    -0.270 OA
ATOM     13  N1  UNL     1       1.779 -19.802  -4.311  0.00  0.00    -0.248 N 
ATOM     14  C4  UNL     1       1.507 -21.138  -3.685  0.00  0.00    +0.125 C 
ATOM     15  C5  UNL     1       2.520 -21.757  -2.768  0.00  0.00    -0.003 C 
ATOM     16  C6  UNL     1       3.805 -21.040  -2.478  0.00  0.00    +0.018 C 
ATOM     17  C7  UNL     1       4.078 -19.704  -3.104  0.00  0.00    +0.099 C 
ATOM     18  C8  UNL     1       3.064 -19.086  -4.021  0.00  0.00    +0.087 C 
BRANCH  11  20
ATOM     19  C1  UNL     1      -1.831 -19.243  -5.208  0.00  0.00    +0.005 C 
ATOM     20  C2  UNL     1      -0.520 -19.901  -5.519  0.00  0.00    +0.058 C 
ENDBRANCH  11  20
ENDBRANCH   1  17
BRANCH   8  21
ATOM     21  C14 UNL     1       7.837 -16.935  -0.640  0.00  0.00    +0.020 A 
ATOM     22  C15 UNL     1       8.697 -17.649   0.360  0.00  0.00    +0.005 A 
ATOM     23  C16 UNL     1       9.443 -16.869   1.401  0.00  0.00    +0.038 A 
ATOM     24  C17 UNL     1       9.329 -15.375   1.443  0.00  0.00    +0.145 A 
ATOM     25  C18 UNL     1       8.470 -14.659   0.444  0.00  0.00    +0.038 A 
ATOM     26  C19 UNL     1       7.723 -15.440  -0.598  0.00  0.00    +0.005 A 
BRANCH  24  27
ATOM     27  O2  UNL     1      10.076 -14.594   2.485  0.00  0.00    -0.453 OA
BRANCH  27  28
ATOM     28  C20 UNL     1       9.930 -13.102   2.551  0.00  0.00    +0.145 A 
ATOM     29  C21 UNL     1       8.621 -12.494   2.957  0.00  0.00    +0.037 A 
ATOM     30  C22 UNL     1       8.474 -11.003   3.024  0.00  0.00    +0.003 A 
ATOM     31  C23 UNL     1       9.639 -10.120   2.684  0.00  0.00    +0.000 A 
ATOM     32  C24 UNL     1      10.948 -10.728   2.277  0.00  0.00    +0.003 A 
ATOM     33  C25 UNL     1      11.094 -12.219   2.211  0.00  0.00    +0.037 A 
ENDBRANCH  27  28
ENDBRANCH  24  27
ENDBRANCH   8  21
TORSDOF 5
ENDMDL
