MODEL 1
REMARK VINA RESULT:    -6.493      0.000      0.000
REMARK INTER + INTRA:          -2.103
REMARK INTER:                  -7.253
REMARK INTRA:                   5.150
REMARK UNBOUND:                 5.150
REMARK  Name = /tmp/tmpvdbecoks/KG_TEMP_ID_12.pdb
REMARK  2 active torsions:
REMARK  status: ('A' for Active; 'I' for Inactive)
REMARK    1  A    between atoms: C23_33  and  C24_34
REMARK    2  A    between atoms: C28_38  and  C29_40
REMARK                            x       y       z     vdW  Elec       q    Type
REMARK                         _______ _______ _______ _____ _____    ______ ____
ROOT
ATOM      1  C1  UNL     1       7.417 -20.740  -5.569  0.00  0.00    +0.049 C 
ATOM      2  C2  UNL     1       6.276 -20.126  -4.814  0.00  0.00    +0.050 C 
ATOM      3  C3  UNL     1       4.863 -20.450  -5.197  0.00  0.00    +0.083 C 
ATOM      4  N1  UNL     1       3.721 -19.836  -4.442  0.00  0.00    -0.229 N 
ATOM      5  C4  UNL     1       3.994 -18.898  -3.303  0.00  0.00    +0.089 C 
ATOM      6  C5  UNL     1       5.408 -18.575  -2.919  0.00  0.00    +0.087 C 
ATOM      7  N2  UNL     1       6.549 -19.189  -3.675  0.00  0.00    -0.251 N 
ATOM      8  C6  UNL     1       7.962 -18.866  -3.292  0.00  0.00    +0.147 A 
ATOM      9  N3  UNL     1       9.104 -19.480  -4.047  0.00  0.00    -0.176 NA
ATOM     10  C7  UNL     1      10.517 -19.156  -3.664  0.00  0.00    +0.356 A 
ATOM     11  O1  UNL     1      11.256 -19.665  -4.289  0.00  0.00    -0.244 OA
ATOM     12  N4  UNL     1      10.790 -18.219  -2.525  0.00  0.00    -0.242 N 
ATOM     13  C8  UNL     1       9.649 -17.605  -1.769  0.00  0.00    +0.154 A 
ATOM     14  N5  UNL     1       9.921 -16.668  -0.631  0.00  0.00    -0.225 NA
ATOM     15  C9  UNL     1       8.780 -16.054   0.125  0.00  0.00    +0.115 A 
ATOM     16  C10 UNL     1       7.366 -16.377  -0.258  0.00  0.00    +0.158 A 
ATOM     17  C11 UNL     1       7.094 -17.314  -1.397  0.00  0.00    +0.037 A 
ATOM     18  C12 UNL     1       8.235 -17.928  -2.153  0.00  0.00    +0.069 A 
ATOM     19  F1  UNL     1       6.225 -15.763   0.497  0.00  0.00    -0.203 F 
ATOM     20  C13 UNL     1       9.053 -15.116   1.264  0.00  0.00    +0.081 A 
ATOM     21  C14 UNL     1      10.466 -14.793   1.647  0.00  0.00    +0.143 A 
ATOM     22  C15 UNL     1      10.739 -13.856   2.786  0.00  0.00    +0.037 A 
ATOM     23  C16 UNL     1       9.598 -13.242   3.542  0.00  0.00    +0.005 A 
ATOM     24  C17 UNL     1       8.184 -13.565   3.158  0.00  0.00    +0.030 A 
ATOM     25  C18 UNL     1       7.911 -14.502   2.019  0.00  0.00    +0.145 A 
ATOM     26  F2  UNL     1       6.498 -14.826   1.636  0.00  0.00    -0.204 F 
ATOM     27  O2  UNL     1      11.607 -15.407   0.892  0.00  0.00    -0.470 OA
ATOM     28  C19 UNL     1      12.203 -17.896  -2.141  0.00  0.00    +0.086 A 
ATOM     29  C20 UNL     1      12.476 -16.958  -1.003  0.00  0.00    +0.040 A 
ATOM     30  C21 UNL     1      13.890 -16.635  -0.619  0.00  0.00    +0.021 A 
ATOM     31  C22 UNL     1      15.031 -17.249  -1.375  0.00  0.00    +0.099 A 
ATOM     32  N6  UNL     1      14.758 -18.186  -2.514  0.00  0.00    -0.243 NA
ATOM     33  C23 UNL     1      13.345 -18.509  -2.897  0.00  0.00    +0.093 A 
ATOM     34  C27 UNL     1      11.335 -16.344  -0.247  0.00  0.00    +0.234 C 
ATOM     35  C28 UNL     1       2.308 -20.159  -4.825  0.00  0.00    +0.257 C 
ATOM     36  O3  UNL     1       2.035 -21.096  -5.964  0.00  0.00    -0.269 OA
ENDROOT
BRANCH  33  37
ATOM     37  C24 UNL     1      13.072 -19.447  -4.036  0.00  0.00    -0.003 C 
ATOM     38  C25 UNL     1      12.970 -18.917  -5.435  0.00  0.00    +0.033 C 
ATOM     39  C26 UNL     1      12.930 -20.529  -3.977  0.00  0.00    -0.003 C 
ENDBRANCH  33  37
BRANCH  35  40
ATOM     40  C29 UNL     1       1.167 -19.545  -4.070  0.00  0.00    +0.059 C 
ATOM     41  C30 UNL     1      -0.090 -19.158  -4.792  0.00  0.00    +0.005 C 
ENDBRANCH  35  40
TORSDOF 2
ENDMDL
