MODEL 1
REMARK VINA RESULT:    -6.727      0.000      0.000
REMARK INTER + INTRA:         -10.912
REMARK INTER:                  -9.087
REMARK INTRA:                  -1.826
REMARK UNBOUND:                -1.826
REMARK  Name = /tmp/tmp9yugxksz/BI-2852.pdb
REMARK  6 active torsions:
REMARK  status: ('A' for Active; 'I' for Inactive)
REMARK    1  A    between atoms: C3_4  and  C5_7
REMARK    2  A    between atoms: C5_7  and  N3_8
REMARK    3  A    between atoms: C11_14  and  C14_17
REMARK    4  A    between atoms: N4_18  and  C15_19
REMARK    5  A    between atoms: C15_19  and  C16_20
REMARK    6  A    between atoms: C17_21  and  C24_29
REMARK                            x       y       z     vdW  Elec       q    Type
REMARK                         _______ _______ _______ _____ _____    ______ ____
ROOT
ATOM      1  C16 UNL     1       8.328 -13.560   2.446  0.00  0.00    +0.085 A 
ATOM      2  C17 UNL     1       9.770 -13.686   2.837  0.00  0.00    +0.032 A 
ATOM      3  C18 UNL     1      10.380 -12.317   2.808  0.00  0.00    +0.020 A 
ATOM      4  C19 UNL     1      11.769 -11.830   3.101  0.00  0.00    +0.002 A 
ATOM      5  C20 UNL     1      12.091 -10.370   2.984  0.00  0.00    +0.000 A 
ATOM      6  C21 UNL     1      11.026  -9.396   2.575  0.00  0.00    +0.002 A 
ATOM      7  C22 UNL     1       9.638  -9.883   2.282  0.00  0.00    +0.019 A 
ATOM      8  C23 UNL     1       9.315 -11.344   2.398  0.00  0.00    +0.081 A 
ATOM      9  N5  UNL     1       8.046 -12.111   2.175  0.00  0.00    -0.248 NA
ENDROOT
BRANCH   2  10
ATOM     10  C24 UNL     1      10.478 -14.960   3.195  0.00  0.00    +0.075 C 
ATOM     11  C25 UNL     1      11.180 -15.878   2.238  0.00  0.00    +0.023 A 
ATOM     12  C26 UNL     1      11.744 -17.023   3.024  0.00  0.00    +0.057 A 
ATOM     13  C27 UNL     1      12.506 -18.109   2.325  0.00  0.00    +0.008 A 
ATOM     14  C28 UNL     1      12.704 -18.049   0.839  0.00  0.00    +0.042 A 
ATOM     15  C29 UNL     1      12.140 -16.903   0.053  0.00  0.00    +0.196 A 
ATOM     16  C30 UNL     1      11.378 -15.817   0.752  0.00  0.00    +0.043 A 
ATOM     17  O1  UNL     1      12.338 -16.843  -1.432  0.00  0.00    -0.287 OA
ATOM     18  C31 UNL     1      11.391 -16.815   4.467  0.00  0.00    +0.269 C 
ATOM     19  O2  UNL     1      11.756 -17.721   5.605  0.00  0.00    -0.268 OA
ATOM     20  N6  UNL     1      10.609 -15.539   4.572  0.00  0.00    -0.175 NA
ENDBRANCH   2  10
BRANCH   1  21
ATOM     21  C15 UNL     1       7.340 -14.684   2.344  0.00  0.00    +0.171 C 
BRANCH  21  23
ATOM     22  C14 UNL     1       7.966 -15.152  -0.133  0.00  0.00    +0.094 C 
ATOM     23  N4  UNL     1       7.381 -15.614   1.168  0.00  0.00    -0.262 NA
BRANCH  22  30
ATOM     24  N3  UNL     1       6.220 -19.324  -2.958  0.00  0.00    -0.320 N 
ATOM     25  C6  UNL     1       6.732 -19.864  -4.260  0.00  0.00    +0.076 A 
ATOM     26  C7  UNL     1       7.887 -19.011  -4.695  0.00  0.00    +0.020 A 
ATOM     27  C8  UNL     1       8.089 -17.943  -3.661  0.00  0.00    +0.017 A 
ATOM     28  C9  UNL     1       7.059 -18.136  -2.588  0.00  0.00    +0.060 A 
ATOM     29  C10 UNL     1       7.018 -17.206  -1.412  0.00  0.00    +0.019 A 
ATOM     30  C11 UNL     1       8.007 -16.083  -1.309  0.00  0.00    +0.020 A 
ATOM     31  C12 UNL     1       9.037 -15.890  -2.383  0.00  0.00    +0.002 A 
ATOM     32  C13 UNL     1       9.078 -16.820  -3.559  0.00  0.00    +0.002 A 
BRANCH  24  33
ATOM     33  C5  UNL     1       5.072 -19.873  -2.165  0.00  0.00    +0.153 C 
BRANCH  33  37
ATOM     34  C1  UNL     1       0.681 -18.788  -4.889  0.00  0.00    +0.132 C 
ATOM     35  N1  UNL     1       1.699 -19.500  -4.048  0.00  0.00    -0.306 N 
ATOM     36  C2  UNL     1       3.030 -18.953  -3.622  0.00  0.00    +0.094 A 
ATOM     37  C3  UNL     1       3.717 -19.999  -2.796  0.00  0.00    +0.101 A 
ATOM     38  N2  UNL     1       2.812 -21.192  -2.710  0.00  0.00    -0.226 NA
ATOM     39  C4  UNL     1       1.565 -20.884  -3.484  0.00  0.00    +0.178 A 
ENDBRANCH  33  37
ENDBRANCH  24  33
ENDBRANCH  22  30
ENDBRANCH  21  23
ENDBRANCH   1  21
TORSDOF 6
ENDMDL
