MODEL 1
REMARK VINA RESULT:    -5.528      0.000      0.000
REMARK INTER + INTRA:          -6.630
REMARK INTER:                  -6.821
REMARK INTRA:                   0.191
REMARK UNBOUND:                 0.191
REMARK  Name = /tmp/tmp8asbtx5_/KG_TEMP_ID_4.pdb
REMARK  4 active torsions:
REMARK  status: ('A' for Active; 'I' for Inactive)
REMARK    1  A    between atoms: C3_3  and  C15_19
REMARK    2  A    between atoms: C5_6  and  N2_9
REMARK    3  A    between atoms: C7_10  and  C8_12
REMARK    4  A    between atoms: C8_12  and  C9_13
REMARK                            x       y       z     vdW  Elec       q    Type
REMARK                         _______ _______ _______ _____ _____    ______ ____
ROOT
ATOM      1  C1  UNL     1      13.949  -8.681   3.354  0.00  0.00    +0.014 C 
ATOM      2  C2  UNL     1      12.995  -9.705   2.818  0.00  0.00    +0.073 C 
ATOM      3  C3  UNL     1      12.018  -9.055   3.753  0.00  0.00    +0.187 C 
ATOM      4  N1  UNL     1      10.705  -9.768   3.623  0.00  0.00    -0.289 N 
ATOM      5  C4  UNL     1       9.271 -10.164   3.816  0.00  0.00    +0.137 C 
ATOM      6  C5  UNL     1       9.435 -11.256   2.801  0.00  0.00    +0.089 C 
ATOM      7  C6  UNL     1      10.870 -10.860   2.607  0.00  0.00    +0.079 C 
ATOM      8  S1  UNL     1      12.284 -10.821   2.110  0.00  0.00    -0.141 S 
ATOM      9  C16 UNL     1      14.169 -10.142   1.996  0.00  0.00    +0.065 C 
ENDROOT
BRANCH   6  10
ATOM     10  N2  UNL     1       8.538 -12.307   2.219  0.00  0.00    -0.180 NA
ATOM     11  C7  UNL     1       8.256 -13.563   2.990  0.00  0.00    +0.250 C 
ATOM     12  O1  UNL     1       8.871 -13.766   4.343  0.00  0.00    -0.273 OA
BRANCH  11  13
ATOM     13  C8  UNL     1       7.358 -14.614   2.409  0.00  0.00    +0.113 C 
BRANCH  13  14
ATOM     14  C9  UNL     1       7.735 -15.298   1.128  0.00  0.00    -0.013 A 
ATOM     15  C10 UNL     1       6.666 -15.823   0.215  0.00  0.00    -0.004 A 
ATOM     16  C11 UNL     1       7.043 -16.506  -1.066  0.00  0.00    -0.000 A 
ATOM     17  C12 UNL     1       8.489 -16.664  -1.434  0.00  0.00    -0.000 A 
ATOM     18  C13 UNL     1       9.557 -16.138  -0.522  0.00  0.00    -0.000 A 
ATOM     19  C14 UNL     1       9.180 -15.455   0.759  0.00  0.00    -0.004 A 
ENDBRANCH  13  14
ENDBRANCH  11  13
ENDBRANCH   6  10
BRANCH   3  20
ATOM     20  C15 UNL     1      12.305  -7.894   4.659  0.00  0.00    +0.383 C 
ATOM     21  O2  UNL     1      12.780  -8.137   6.061  0.00  0.00    -0.244 OA
ATOM     22  O3  UNL     1      12.117  -6.491   4.163  0.00  0.00    -0.244 OA
ENDBRANCH   3  20
TORSDOF 4
ENDMDL
